# generated using pymatgen
data_Th4AgPd
_symmetry_space_group_name_H-M   I422
_cell_length_a   5.96160400
_cell_length_b   6.05564820
_cell_length_c   6.05564820
_cell_angle_alpha   75.97794970
_cell_angle_beta   60.51241213
_cell_angle_gamma   60.51241214
_symmetry_Int_Tables_number   97
_chemical_formula_structural   Th4AgPd
_chemical_formula_sum   'Th4 Ag1 Pd1'
_cell_volume   165.64730788
_cell_formula_units_Z   1
loop_
 _symmetry_equiv_pos_site_id
 _symmetry_equiv_pos_as_xyz
  1  'x, y, z'
  2  'x+z, -z, y'
  3  'x+y+z, -y, -z'
  4  'x+y, z, -y'
  5  '-x-y-z, z, y'
  6  '-x-y, y, -z'
  7  '-x, -z, -y'
  8  '-x-z, -y, z'
loop_
 _atom_site_type_symbol
 _atom_site_label
 _atom_site_symmetry_multiplicity
 _atom_site_fract_x
 _atom_site_fract_y
 _atom_site_fract_z
 _atom_site_occupancy
  Th  Th0  4  0.09061900  0.81876100  0.50000000  1.0
  Ag  Ag1  1  0.50000000  0.00000000  0.00000000  1.0
  Pd  Pd2  1  0.00000000  0.00000000  0.00000000  1.0
