# generated using pymatgen
data_Ag11Hg9
_symmetry_space_group_name_H-M   P3m1
_cell_length_a   3.21913400
_cell_length_b   3.21913329
_cell_length_c   46.74252700
_cell_angle_alpha   90.00000000
_cell_angle_beta   90.00000000
_cell_angle_gamma   120.00000732
_symmetry_Int_Tables_number   156
_chemical_formula_structural   Ag11Hg9
_chemical_formula_sum   'Ag11 Hg9'
_cell_volume   419.48921681
_cell_formula_units_Z   1
loop_
 _symmetry_equiv_pos_site_id
 _symmetry_equiv_pos_as_xyz
  1  'x, y, z'
  2  '-y, x-y, z'
  3  '-x+y, -x, z'
  4  '-y, -x, z'
  5  '-x+y, y, z'
  6  'x, x-y, z'
loop_
 _atom_site_type_symbol
 _atom_site_label
 _atom_site_symmetry_multiplicity
 _atom_site_fract_x
 _atom_site_fract_y
 _atom_site_fract_z
 _atom_site_occupancy
  Ag  Ag0  1  0.00000000  0.00000000  0.03058900  1.0
  Ag  Ag1  1  0.00000000  0.00000000  0.12517000  1.0
  Ag  Ag2  1  0.00000000  0.00000000  0.22639600  1.0
  Ag  Ag3  1  0.00000000  0.00000000  0.32273600  1.0
  Ag  Ag4  1  0.00000000  0.00000000  0.42418300  1.0
  Ag  Ag5  1  0.00000000  0.00000000  0.52470500  1.0
  Ag  Ag6  1  0.00000000  0.00000000  0.62493000  1.0
  Ag  Ag7  1  0.00000000  0.00000000  0.72393100  1.0
  Ag  Ag8  1  0.00000000  0.00000000  0.82168700  1.0
  Ag  Ag9  1  0.33333333  0.66666667  0.07755200  1.0
  Ag  Ag10  1  0.33333333  0.66666667  0.27457800  1.0
  Hg  Hg11  1  0.00000000  0.00000000  0.92574000  1.0
  Hg  Hg12  1  0.33333333  0.66666667  0.17554700  1.0
  Hg  Hg13  1  0.33333333  0.66666667  0.37370300  1.0
  Hg  Hg14  1  0.33333333  0.66666667  0.47438900  1.0
  Hg  Hg15  1  0.33333333  0.66666667  0.57492300  1.0
  Hg  Hg16  1  0.33333333  0.66666667  0.67451100  1.0
  Hg  Hg17  1  0.33333333  0.66666667  0.77313100  1.0
  Hg  Hg18  1  0.33333333  0.66666667  0.87064200  1.0
  Hg  Hg19  1  0.33333333  0.66666667  0.98095700  1.0
