# generated using pymatgen
data_Ba2Si3Ag
_symmetry_space_group_name_H-M   Fddd
_cell_length_a   8.66331000
_cell_length_b   8.67036513
_cell_length_c   10.87550039
_cell_angle_alpha   78.52236920
_cell_angle_beta   66.52838007
_cell_angle_gamma   60.02691354
_symmetry_Int_Tables_number   70
_chemical_formula_structural   Ba2Si3Ag
_chemical_formula_sum   'Ba8 Si12 Ag4'
_cell_volume   649.09773967
_cell_formula_units_Z   4
loop_
 _symmetry_equiv_pos_site_id
 _symmetry_equiv_pos_as_xyz
  1  'x, y, z'
  2  '-x-z, -y, z'
  3  'x+y+z, -y, -z'
  4  '-x-y, y, -z'
  5  '-x+3/4, -y+1/2, -z+1/2'
  6  'x+z+3/4, y+1/2, -z+1/2'
  7  '-x-y-z+3/4, y+1/2, z+1/2'
  8  'x+y+3/4, -y+1/2, z+1/2'
loop_
 _atom_site_type_symbol
 _atom_site_label
 _atom_site_symmetry_multiplicity
 _atom_site_fract_x
 _atom_site_fract_y
 _atom_site_fract_z
 _atom_site_occupancy
  Ba  Ba0  4  0.12441200  0.00000000  0.75117600  1.0
  Ba  Ba1  4  0.12579700  0.50000000  0.74840600  1.0
  Si  Si2  8  0.08773300  0.34065600  0.50592900  1.0
  Si  Si3  4  0.09037800  0.81924400  0.50000000  1.0
  Ag  Ag4  4  0.16696700  0.66606600  0.00000000  1.0
