# generated using pymatgen
data_Ag0.85Sn1.15Se2
_symmetry_space_group_name_H-M   R-3m
_cell_length_a   4.05980270
_cell_length_b   4.05980270
_cell_length_c   7.03252290
_cell_angle_alpha   73.22315284
_cell_angle_beta   73.22315284
_cell_angle_gamma   59.99998863
_symmetry_Int_Tables_number   166
_chemical_formula_structural   Ag0.85Sn1.15Se2
_chemical_formula_sum   'Ag0.85 Sn1.15 Se2'
_cell_volume   94.64136933
_cell_formula_units_Z   1
loop_
 _symmetry_equiv_pos_site_id
 _symmetry_equiv_pos_as_xyz
  1  'x, y, z'
  2  '-x, -y, -z'
  3  '-x-y-z, x, z'
  4  'x+y+z, -x, -z'
  5  'y, -x-y-z, z'
  6  '-y, x+y+z, -z'
  7  '-x, x+y+z, -z'
  8  'x, -x-y-z, z'
  9  'x+y+z, -y, -z'
  10  '-x-y-z, y, z'
  11  '-y, -x, -z'
  12  'y, x, z'
loop_
 _atom_site_type_symbol
 _atom_site_label
 _atom_site_symmetry_multiplicity
 _atom_site_fract_x
 _atom_site_fract_y
 _atom_site_fract_z
 _atom_site_occupancy
  Ag  Ag0  1  0.00000000  0.00000000  0.00000000  0.85
  Sn  Sn1  1  0.00000000  0.00000000  0.00000000  0.15
  Sn  Sn2  1  0.50000000  0.50000000  0.50000000  1.0
  Se  Se3  2  0.25181600  0.25181600  0.24455200  1.0
