# generated using pymatgen
data_In2Ag
_symmetry_space_group_name_H-M   I4/mcm
_cell_length_a   5.49124600
_cell_length_b   5.97139439
_cell_length_c   5.97139439
_cell_angle_alpha   77.79486921
_cell_angle_beta   62.62605821
_cell_angle_gamma   62.62605822
_symmetry_Int_Tables_number   140
_chemical_formula_structural   In2Ag
_chemical_formula_sum   'In4 Ag2'
_cell_volume   154.40892452
_cell_formula_units_Z   2
loop_
 _symmetry_equiv_pos_site_id
 _symmetry_equiv_pos_as_xyz
  1  'x, y, z'
  2  '-x, -y, -z'
  3  'x+z, -z, y'
  4  '-x-z, z, -y'
  5  'x+y+z, -y, -z'
  6  '-x-y-z, y, z'
  7  'x+y, z, -y'
  8  '-x-y, -z, y'
  9  '-x+1/2, -z, -y'
  10  'x+1/2, z, y'
  11  '-x-z+1/2, -y, z'
  12  'x+z+1/2, y, -z'
  13  '-x-y-z+1/2, z, y'
  14  'x+y+z+1/2, -z, -y'
  15  '-x-y+1/2, y, -z'
  16  'x+y+1/2, -y, z'
loop_
 _atom_site_type_symbol
 _atom_site_label
 _atom_site_symmetry_multiplicity
 _atom_site_fract_x
 _atom_site_fract_y
 _atom_site_fract_z
 _atom_site_occupancy
  In  In0  4  0.14904500  0.20191000  0.50000000  1.0
  Ag  Ag1  2  0.00000000  0.00000000  0.00000000  1.0
