# generated using pymatgen
data_AgTe
_symmetry_space_group_name_H-M   Pnma
_cell_length_a   4.74265900
_cell_length_b   8.93363000
_cell_length_c   20.35874300
_cell_angle_alpha   90.00000000
_cell_angle_beta   90.00000000
_cell_angle_gamma   90.00000000
_symmetry_Int_Tables_number   62
_chemical_formula_structural   AgTe
_chemical_formula_sum   'Ag16 Te16'
_cell_volume   862.58285427
_cell_formula_units_Z   16
loop_
 _symmetry_equiv_pos_site_id
 _symmetry_equiv_pos_as_xyz
  1  'x, y, z'
  2  '-x, -y, -z'
  3  'x+1/2, -y, -z+1/2'
  4  '-x+1/2, y, z+1/2'
  5  '-x+1/2, -y+1/2, z+1/2'
  6  'x+1/2, y+1/2, -z+1/2'
  7  '-x, y+1/2, -z'
  8  'x, -y+1/2, z'
loop_
 _atom_site_type_symbol
 _atom_site_label
 _atom_site_symmetry_multiplicity
 _atom_site_fract_x
 _atom_site_fract_y
 _atom_site_fract_z
 _atom_site_occupancy
  Ag  Ag0  8  0.13688800  0.01516800  0.43149100  1.0
  Ag  Ag1  4  0.17989600  0.75000000  0.05217300  1.0
  Ag  Ag2  4  0.24861100  0.75000000  0.34422500  1.0
  Te  Te3  8  0.09568700  0.52286400  0.15743600  1.0
  Te  Te4  4  0.15255400  0.25000000  0.75900000  1.0
  Te  Te5  4  0.17065800  0.25000000  0.53059900  1.0
