# generated using pymatgen
data_Ag2Se
_symmetry_space_group_name_H-M   I4/mmm
_cell_length_a   4.55316454
_cell_length_b   4.55316454
_cell_length_c   4.55316454
_cell_angle_alpha   88.64882947
_cell_angle_beta   60.77700838
_cell_angle_gamma   119.22299162
_symmetry_Int_Tables_number   139
_chemical_formula_structural   Ag2Se
_chemical_formula_sum   'Ag2 Se1'
_cell_volume   67.50954793
_cell_formula_units_Z   1
loop_
 _symmetry_equiv_pos_site_id
 _symmetry_equiv_pos_as_xyz
  1  'x, y, z'
  2  '-x, -y, -z'
  3  '-y-z, -z, x+z'
  4  'y+z, z, -x-z'
  5  '-x, -x-z, x-y'
  6  'x, x+z, -x+y'
  7  'y+z, -x+y, -y'
  8  '-y-z, x-y, y'
  9  '-y-z, -y, -x+y'
  10  'y+z, y, x-y'
  11  '-x, z, y'
  12  'x, -z, -y'
  13  'y+z, x+z, -z'
  14  '-y-z, -x-z, z'
  15  'x, x-y, -x-z'
  16  '-x, -x+y, x+z'
loop_
 _atom_site_type_symbol
 _atom_site_label
 _atom_site_symmetry_multiplicity
 _atom_site_fract_x
 _atom_site_fract_y
 _atom_site_fract_z
 _atom_site_occupancy
  Ag  Ag0  2  0.50000000  0.25000000  0.25000000  1.0
  Se  Se1  1  0.00000000  0.00000000  0.00000000  1.0
