# generated using pymatgen
data_Ag2S
_symmetry_space_group_name_H-M   Pc
_cell_length_a   4.45681500
_cell_length_b   4.49469578
_cell_length_c   6.26596100
_cell_angle_alpha   90.00000000
_cell_angle_beta   90.00000000
_cell_angle_gamma   92.55830129
_symmetry_Int_Tables_number   7
_chemical_formula_structural   Ag2S
_chemical_formula_sum   'Ag4 S2'
_cell_volume   125.39480028
_cell_formula_units_Z   2
loop_
 _symmetry_equiv_pos_site_id
 _symmetry_equiv_pos_as_xyz
  1  'x, y, z'
  2  'x+1/2, y+1/2, -z'
loop_
 _atom_site_type_symbol
 _atom_site_label
 _atom_site_symmetry_multiplicity
 _atom_site_fract_x
 _atom_site_fract_y
 _atom_site_fract_z
 _atom_site_occupancy
  Ag  Ag0  2  0.07756000  0.77289700  0.90057700  1.0
  Ag  Ag1  2  0.17423400  0.58959300  0.43396700  1.0
  S  S2  2  0.06070500  0.07500900  0.24801400  1.0
