# generated using pymatgen
data_Ag2Se
_symmetry_space_group_name_H-M   P2_12_12_1
_cell_length_a   4.49748100
_cell_length_b   7.11325500
_cell_length_c   7.67068200
_cell_angle_alpha   90.00000000
_cell_angle_beta   90.00000000
_cell_angle_gamma   90.00000000
_symmetry_Int_Tables_number   19
_chemical_formula_structural   Ag2Se
_chemical_formula_sum   'Ag8 Se4'
_cell_volume   245.39838141
_cell_formula_units_Z   4
loop_
 _symmetry_equiv_pos_site_id
 _symmetry_equiv_pos_as_xyz
  1  'x, y, z'
  2  '-x+1/2, -y, z+1/2'
  3  'x+1/2, -y+1/2, -z'
  4  '-x, y+1/2, -z+1/2'
loop_
 _atom_site_type_symbol
 _atom_site_label
 _atom_site_symmetry_multiplicity
 _atom_site_fract_x
 _atom_site_fract_y
 _atom_site_fract_z
 _atom_site_occupancy
  Ag  Ag0  4  0.02200600  0.22646400  0.86460100  1.0
  Ag  Ag1  4  0.15454200  0.61505200  0.04755900  1.0
  Se  Se2  4  0.12120100  0.99677300  0.15444500  1.0
