# generated using pymatgen
data_Ag2S
_symmetry_space_group_name_H-M   P2_12_12_1
_cell_length_a   4.43162300
_cell_length_b   7.00321000
_cell_length_c   7.30391400
_cell_angle_alpha   90.00000000
_cell_angle_beta   90.00000000
_cell_angle_gamma   90.00000000
_symmetry_Int_Tables_number   19
_chemical_formula_structural   Ag2S
_chemical_formula_sum   'Ag8 S4'
_cell_volume   226.68125481
_cell_formula_units_Z   4
loop_
 _symmetry_equiv_pos_site_id
 _symmetry_equiv_pos_as_xyz
  1  'x, y, z'
  2  '-x+1/2, -y, z+1/2'
  3  'x+1/2, -y+1/2, -z'
  4  '-x, y+1/2, -z+1/2'
loop_
 _atom_site_type_symbol
 _atom_site_label
 _atom_site_symmetry_multiplicity
 _atom_site_fract_x
 _atom_site_fract_y
 _atom_site_fract_z
 _atom_site_occupancy
  Ag  Ag0  4  0.00408500  0.77591500  0.64516000  1.0
  Ag  Ag1  4  0.13816900  0.38861900  0.45662400  1.0
  S  S2  4  0.12150700  0.00177000  0.35069900  1.0
