# generated using pymatgen
data_Ag2S
_symmetry_space_group_name_H-M   P2_1
_cell_length_a   4.25678200
_cell_length_b   4.72456173
_cell_length_c   6.50614400
_cell_angle_alpha   90.00000000
_cell_angle_beta   90.00000000
_cell_angle_gamma   103.05957294
_symmetry_Int_Tables_number   4
_chemical_formula_structural   Ag2S
_chemical_formula_sum   'Ag4 S2'
_cell_volume   127.46356010
_cell_formula_units_Z   2
loop_
 _symmetry_equiv_pos_site_id
 _symmetry_equiv_pos_as_xyz
  1  'x, y, z'
  2  '-x, -y, z+1/2'
loop_
 _atom_site_type_symbol
 _atom_site_label
 _atom_site_symmetry_multiplicity
 _atom_site_fract_x
 _atom_site_fract_y
 _atom_site_fract_z
 _atom_site_occupancy
  Ag  Ag0  2  0.14000200  0.92963900  0.63127400  1.0
  Ag  Ag1  2  0.47007900  0.47771800  0.99814300  1.0
  S  S2  2  0.28455300  0.78903800  0.24558400  1.0
