# generated using pymatgen
data_Ag2Se
_symmetry_space_group_name_H-M   P1
_cell_length_a   10.17579519
_cell_length_b   11.09443060
_cell_length_c   21.38412389
_cell_angle_alpha   78.67103939
_cell_angle_beta   86.76534755
_cell_angle_gamma   78.18894748
_symmetry_Int_Tables_number   1
_chemical_formula_structural   Ag2Se
_chemical_formula_sum   'Ag6 Se3'
_cell_volume   2316.66715889
_cell_formula_units_Z   3
loop_
 _symmetry_equiv_pos_site_id
 _symmetry_equiv_pos_as_xyz
  1  'x, y, z'
loop_
 _atom_site_type_symbol
 _atom_site_label
 _atom_site_symmetry_multiplicity
 _atom_site_fract_x
 _atom_site_fract_y
 _atom_site_fract_z
 _atom_site_occupancy
  Ag  Ag0  1  0.16696242  0.16671252  0.66634931  1.0
  Ag  Ag1  1  0.24930357  0.75045399  0.49913067  1.0
  Ag  Ag2  1  0.50170018  0.25037510  0.87636314  1.0
  Ag  Ag3  1  0.62467228  0.62529081  0.99924546  1.0
  Ag  Ag4  1  0.84664902  0.84521665  0.32807159  1.0
  Ag  Ag5  1  0.98889764  0.98741095  0.25592103  1.0
  Se  Se6  1  0.33197305  0.33316594  0.33322565  1.0
  Se  Se7  1  0.66558701  0.66530955  0.66659534  1.0
  Se  Se8  1  0.99925483  0.00106448  0.00009781  1.0
