# generated using pymatgen
data_Ag2S
_symmetry_space_group_name_H-M   P2_1/c
_cell_length_a   4.55434870
_cell_length_b   7.02112400
_cell_length_c   8.30026798
_cell_angle_alpha   90.00000000
_cell_angle_beta   91.76876506
_cell_angle_gamma   90.00000000
_symmetry_Int_Tables_number   14
_chemical_formula_structural   Ag2S
_chemical_formula_sum   'Ag8 S4'
_cell_volume   265.28827818
_cell_formula_units_Z   4
loop_
 _symmetry_equiv_pos_site_id
 _symmetry_equiv_pos_as_xyz
  1  'x, y, z'
  2  '-x, -y, -z'
  3  '-x+1/2, y+1/2, -z+1/2'
  4  'x+1/2, -y+1/2, z+1/2'
loop_
 _atom_site_type_symbol
 _atom_site_label
 _atom_site_symmetry_multiplicity
 _atom_site_fract_x
 _atom_site_fract_y
 _atom_site_fract_z
 _atom_site_occupancy
  Ag  Ag0  4  0.23166000  0.82372700  0.92873700  1.0
  Ag  Ag1  4  0.24426200  0.96026600  0.26879500  1.0
  S  S2  4  0.07644300  0.28408200  0.84507200  1.0
