# generated using pymatgen
data_Ag2Te
_symmetry_space_group_name_H-M   Cmce
_cell_length_a   4.55382552
_cell_length_b   4.55382552
_cell_length_c   7.66676000
_cell_angle_alpha   90.00000000
_cell_angle_beta   90.00000000
_cell_angle_gamma   112.20536341
_symmetry_Int_Tables_number   64
_chemical_formula_structural   Ag2Te
_chemical_formula_sum   'Ag4 Te2'
_cell_volume   147.19678870
_cell_formula_units_Z   2
loop_
 _symmetry_equiv_pos_site_id
 _symmetry_equiv_pos_as_xyz
  1  'x, y, z'
  2  '-x, -y, -z'
  3  '-x+1/2, -y+1/2, z+1/2'
  4  'x+1/2, y+1/2, -z+1/2'
  5  'y, x, -z'
  6  '-y, -x, z'
  7  '-y+1/2, -x+1/2, -z+1/2'
  8  'y+1/2, x+1/2, z+1/2'
loop_
 _atom_site_type_symbol
 _atom_site_label
 _atom_site_symmetry_multiplicity
 _atom_site_fract_x
 _atom_site_fract_y
 _atom_site_fract_z
 _atom_site_occupancy
  Ag  Ag0  4  0.14257800  0.85742200  0.35800700  1.0
  Te  Te1  2  0.00000000  0.00000000  0.00000000  1.0
