# generated using pymatgen
data_Ag2Te
_symmetry_space_group_name_H-M   P2_1/c
_cell_length_a   4.53278300
_cell_length_b   8.04571000
_cell_length_c   8.39742873
_cell_angle_alpha   112.33016479
_cell_angle_beta   90.00000000
_cell_angle_gamma   90.00000000
_symmetry_Int_Tables_number   14
_chemical_formula_structural   Ag2Te
_chemical_formula_sum   'Ag8 Te4'
_cell_volume   283.28395115
_cell_formula_units_Z   4
loop_
 _symmetry_equiv_pos_site_id
 _symmetry_equiv_pos_as_xyz
  1  'x, y, z'
  2  '-x, -y, -z'
  3  'x+1/2, -y+1/2, -z+1/2'
  4  '-x+1/2, y+1/2, z+1/2'
loop_
 _atom_site_type_symbol
 _atom_site_label
 _atom_site_symmetry_multiplicity
 _atom_site_fract_x
 _atom_site_fract_y
 _atom_site_fract_z
 _atom_site_occupancy
  Ag  Ag0  4  0.12647700  0.37474500  0.34293000  1.0
  Ag  Ag1  4  0.14282200  0.00962700  0.34454400  1.0
  Te  Te2  4  0.14565100  0.24275000  0.97005400  1.0
