# generated using pymatgen
data_Ag5(PbO3)2
_symmetry_space_group_name_H-M   P31m
_cell_length_a   6.06589600
_cell_length_b   6.06589684
_cell_length_c   6.52927900
_cell_angle_alpha   90.00000000
_cell_angle_beta   90.00000000
_cell_angle_gamma   119.99999543
_symmetry_Int_Tables_number   157
_chemical_formula_structural   Ag5(PbO3)2
_chemical_formula_sum   'Ag5 Pb2 O6'
_cell_volume   208.05868946
_cell_formula_units_Z   1
loop_
 _symmetry_equiv_pos_site_id
 _symmetry_equiv_pos_as_xyz
  1  'x, y, z'
  2  '-y, x-y, z'
  3  '-x+y, -x, z'
  4  'y, x, z'
  5  'x-y, -y, z'
  6  '-x, -x+y, z'
loop_
 _atom_site_type_symbol
 _atom_site_label
 _atom_site_symmetry_multiplicity
 _atom_site_fract_x
 _atom_site_fract_y
 _atom_site_fract_z
 _atom_site_occupancy
  Ag  Ag0  3  0.00000000  0.50086500  0.47854400  1.0
  Ag  Ag1  1  0.00000000  0.00000000  0.26229300  1.0
  Ag  Ag2  1  0.00000000  0.00000000  0.72622400  1.0
  Pb  Pb3  2  0.33333333  0.66666667  0.97965900  1.0
  O  O4  3  0.00000000  0.37611500  0.17092100  1.0
  O  O5  3  0.00000000  0.62183200  0.78725700  1.0
