# generated using pymatgen
data_Ag5(PbO3)2
_symmetry_space_group_name_H-M   P-31m
_cell_length_a   6.07129600
_cell_length_b   6.07129637
_cell_length_c   6.52792600
_cell_angle_alpha   90.00000000
_cell_angle_beta   90.00000000
_cell_angle_gamma   119.99999797
_symmetry_Int_Tables_number   162
_chemical_formula_structural   Ag5(PbO3)2
_chemical_formula_sum   'Ag5 Pb2 O6'
_cell_volume   208.38607930
_cell_formula_units_Z   1
loop_
 _symmetry_equiv_pos_site_id
 _symmetry_equiv_pos_as_xyz
  1  'x, y, z'
  2  '-x, -y, -z'
  3  '-y, x-y, z'
  4  'y, -x+y, -z'
  5  '-x+y, -x, z'
  6  'x-y, x, -z'
  7  '-y, -x, -z'
  8  'y, x, z'
  9  '-x+y, y, -z'
  10  'x-y, -y, z'
  11  'x, x-y, -z'
  12  '-x, -x+y, z'
loop_
 _atom_site_type_symbol
 _atom_site_label
 _atom_site_symmetry_multiplicity
 _atom_site_fract_x
 _atom_site_fract_y
 _atom_site_fract_z
 _atom_site_occupancy
  Ag  Ag0  3  0.00000000  0.50000000  0.00000000  1.0
  Ag  Ag1  2  0.00000000  0.00000000  0.23698000  1.0
  Pb  Pb2  2  0.33333333  0.66666667  0.50000000  1.0
  O  O3  6  0.00000000  0.37731000  0.69185700  1.0
