# generated using pymatgen
data_Zn8Ag5
_symmetry_space_group_name_H-M   I-43m
_cell_length_a   8.17663081
_cell_length_b   8.17663081
_cell_length_c   8.17663081
_cell_angle_alpha   109.47122063
_cell_angle_beta   109.47122064
_cell_angle_gamma   109.47122064
_symmetry_Int_Tables_number   217
_chemical_formula_structural   Zn8Ag5
_chemical_formula_sum   'Zn16 Ag10'
_cell_volume   420.82475204
_cell_formula_units_Z   2
loop_
 _symmetry_equiv_pos_site_id
 _symmetry_equiv_pos_as_xyz
  1  'x, y, z'
  2  '-x+z, -x, -x+y'
  3  'y-z, x-z, -z'
  4  '-y, -y+z, x-y'
  5  '-y+z, -y, x-y'
  6  'y, x, z'
  7  '-x, -x+z, -x+y'
  8  'x-z, y-z, -z'
  9  '-y, x-y, -y+z'
  10  'x, z, y'
  11  '-x+z, -x+y, -x'
  12  'y-z, -z, x-z'
  13  'y, z, x'
  14  '-x, -x+y, -x+z'
  15  'x-z, -z, y-z'
  16  '-y+z, x-y, -y'
  17  '-x+y, -x, -x+z'
  18  '-z, x-z, y-z'
  19  'x-y, -y+z, -y'
  20  'z, y, x'
  21  '-z, y-z, x-z'
  22  'x-y, -y, -y+z'
  23  'z, x, y'
  24  '-x+y, -x+z, -x'
loop_
 _atom_site_type_symbol
 _atom_site_label
 _atom_site_symmetry_multiplicity
 _atom_site_fract_x
 _atom_site_fract_y
 _atom_site_fract_z
 _atom_site_occupancy
  Zn  Zn0  12  0.00000000  0.34379300  0.71378100  1.0
  Zn  Zn1  4  0.00000000  0.00000000  0.21948000  1.0
  Ag  Ag2  6  0.00000000  0.35352900  0.35352900  1.0
  Ag  Ag3  4  0.00000000  0.00000000  0.64055500  1.0
