# generated using pymatgen
data_Ag7NO11
_symmetry_space_group_name_H-M   R3m
_cell_length_a   7.03314090
_cell_length_b   7.03314090
_cell_length_c   7.03314052
_cell_angle_alpha   61.94092886
_cell_angle_beta   61.94092886
_cell_angle_gamma   61.94092542
_symmetry_Int_Tables_number   160
_chemical_formula_structural   Ag7NO11
_chemical_formula_sum   'Ag7 N1 O11'
_cell_volume   256.68308346
_cell_formula_units_Z   1
loop_
 _symmetry_equiv_pos_site_id
 _symmetry_equiv_pos_as_xyz
  1  'x, y, z'
  2  'z, x, y'
  3  'y, z, x'
  4  'z, y, x'
  5  'y, x, z'
  6  'x, z, y'
loop_
 _atom_site_type_symbol
 _atom_site_label
 _atom_site_symmetry_multiplicity
 _atom_site_fract_x
 _atom_site_fract_y
 _atom_site_fract_z
 _atom_site_occupancy
  Ag  Ag0  3  0.49984600  0.49984600  0.99971600  1.0
  Ag  Ag1  3  0.50194900  0.99891700  0.99891700  1.0
  Ag  Ag2  1  0.00068900  0.00068900  0.00068900  1.0
  N  N3  1  0.49995300  0.49995300  0.49995300  1.0
  O  O4  3  0.14384900  0.14384900  0.58244800  1.0
  O  O5  3  0.39912200  0.39912200  0.70155600  1.0
  O  O6  3  0.41934800  0.85521900  0.85521900  1.0
  O  O7  1  0.13770700  0.13770700  0.13770700  1.0
  O  O8  1  0.86272900  0.86272900  0.86272900  1.0
