# generated using pymatgen
data_Nb12Al1.2Ge2.8
_symmetry_space_group_name_H-M   I4/mcm
_cell_length_a   5.32551000
_cell_length_b   7.79074299
_cell_length_c   7.79074299
_cell_angle_alpha   83.29158358
_cell_angle_beta   70.01436876
_cell_angle_gamma   70.01436876
_symmetry_Int_Tables_number   140
_chemical_formula_structural   Nb12Al1.2Ge2.8
_chemical_formula_sum   'Nb12 Al1.2 Ge2.8'
_cell_volume   285.47615849
_cell_formula_units_Z   1
loop_
 _symmetry_equiv_pos_site_id
 _symmetry_equiv_pos_as_xyz
  1  'x, y, z'
  2  '-x, -y, -z'
  3  'x+y, z, -y'
  4  '-x-y, -z, y'
  5  'x+y+z, -y, -z'
  6  '-x-y-z, y, z'
  7  'x+z, -z, y'
  8  '-x-z, z, -y'
  9  '-x-y-z+1/2, z, y'
  10  'x+y+z+1/2, -z, -y'
  11  '-x-z+1/2, -y, z'
  12  'x+z+1/2, y, -z'
  13  '-x+1/2, -z, -y'
  14  'x+1/2, z, y'
  15  '-x-y+1/2, y, -z'
  16  'x+y+1/2, -y, z'
loop_
 _atom_site_type_symbol
 _atom_site_label
 _atom_site_symmetry_multiplicity
 _atom_site_fract_x
 _atom_site_fract_y
 _atom_site_fract_z
 _atom_site_occupancy
  Nb  Nb0  8  0.08004900  0.14931800  0.69058400  1.0
  Nb  Nb1  2  0.25000000  0.00000000  0.00000000  1.0
  Nb  Nb2  2  0.25000000  0.50000000  0.50000000  1.0
  Ge  Ge3  4  0.16231700  0.50000000  0.17536600  0.7
  Al  Al4  4  0.16231700  0.50000000  0.17536600  0.3
