# generated using pymatgen
data_Al1.206V1.794
_symmetry_space_group_name_H-M   Fmmm
_cell_length_a   2.63841703
_cell_length_b   2.63841703
_cell_length_c   6.52520259
_cell_angle_alpha   98.35206930
_cell_angle_beta   98.35206940
_cell_angle_gamma   106.35112509
_symmetry_Int_Tables_number   69
_chemical_formula_structural   Al1.206V1.794
_chemical_formula_sum   'Al1.206 V1.794'
_cell_volume   42.28700688
_cell_formula_units_Z   1
loop_
 _symmetry_equiv_pos_site_id
 _symmetry_equiv_pos_as_xyz
  1  'x, y, z'
  2  '-x, -y, -z'
  3  '-x+z, -y+z, z'
  4  'x-z, y-z, -z'
  5  'y-z, x-z, -z'
  6  '-y+z, -x+z, z'
  7  '-y, -x, -z'
  8  'y, x, z'
loop_
 _atom_site_type_symbol
 _atom_site_label
 _atom_site_symmetry_multiplicity
 _atom_site_fract_x
 _atom_site_fract_y
 _atom_site_fract_z
 _atom_site_occupancy
  Al  Al0  1  0.00000000  0.00000000  0.00000000  1.0
  V  V1  2  0.32910500  0.32910500  0.65821000  0.897
  Al  Al2  2  0.32910500  0.32910500  0.65821000  0.103
