# generated using pymatgen
data_Mg7.71428571Al12
_symmetry_space_group_name_H-M   I4_1/amd
_cell_length_a   6.44470100
_cell_length_b   6.44470100
_cell_length_c   10.63373455
_cell_angle_alpha   107.63973642
_cell_angle_beta   107.63974209
_cell_angle_gamma   90.00000000
_symmetry_Int_Tables_number   141
_chemical_formula_structural   Mg7.71428571Al12
_chemical_formula_sum   'Mg7.71428571 Al12'
_cell_volume   399.05072003
_cell_formula_units_Z   1
loop_
 _symmetry_equiv_pos_site_id
 _symmetry_equiv_pos_as_xyz
  1  'x, y, z'
  2  '-y+z+3/4, x+1/4, z+1/2'
  3  '-x+z, -y+z, z'
  4  'y+3/4, -x+z+1/4, z+1/2'
  5  'x-z+3/4, -y+1/4, -z+1/2'
  6  '-y, -x, -z'
  7  '-x+3/4, y-z+1/4, -z+1/2'
  8  'y-z, x-z, -z'
  9  '-x+3/4, -y+1/4, -z+1/2'
  10  'y-z, -x, -z'
  11  'x-z+3/4, y-z+1/4, -z+1/2'
  12  '-y, x-z, -z'
  13  '-x+z, y, z'
  14  'y+3/4, x+1/4, z+1/2'
  15  'x, -y+z, z'
  16  '-y+z+3/4, -x+z+1/4, z+1/2'
loop_
 _atom_site_type_symbol
 _atom_site_label
 _atom_site_symmetry_multiplicity
 _atom_site_fract_x
 _atom_site_fract_y
 _atom_site_fract_z
 _atom_site_occupancy
  Mg  Mg0  8  0.04337200  0.31939900  0.08674400  0.9642857142875
  Al  Al1  8  0.09071100  0.80318700  0.60637400  1.0
  Al  Al2  4  0.37500000  0.12500000  0.25000000  1.0
