# generated using pymatgen
data_Al0.9Cr2.1
_symmetry_space_group_name_H-M   I4/mmm
_cell_length_a   2.95838000
_cell_length_b   2.95838000
_cell_length_c   4.80225519
_cell_angle_alpha   107.93993885
_cell_angle_beta   107.93993886
_cell_angle_gamma   89.99999998
_symmetry_Int_Tables_number   139
_chemical_formula_structural   Al0.9Cr2.1
_chemical_formula_sum   'Al0.9 Cr2.1'
_cell_volume   37.83223569
_cell_formula_units_Z   1
loop_
 _symmetry_equiv_pos_site_id
 _symmetry_equiv_pos_as_xyz
  1  'x, y, z'
  2  '-x, -y, -z'
  3  '-y+z, x, z'
  4  'y-z, -x, -z'
  5  '-x+z, -y+z, z'
  6  'x-z, y-z, -z'
  7  'y, -x+z, z'
  8  '-y, x-z, -z'
  9  'x-z, -y, -z'
  10  '-x+z, y, z'
  11  '-y, -x, -z'
  12  'y, x, z'
  13  '-x, y-z, -z'
  14  'x, -y+z, z'
  15  'y-z, x-z, -z'
  16  '-y+z, -x+z, z'
loop_
 _atom_site_type_symbol
 _atom_site_label
 _atom_site_symmetry_multiplicity
 _atom_site_fract_x
 _atom_site_fract_y
 _atom_site_fract_z
 _atom_site_occupancy
  Al  Al0  1  0.00000000  0.00000000  0.00000000  0.9
  Cr  Cr1  1  0.00000000  0.00000000  0.00000000  0.1
  Cr  Cr2  2  0.31567100  0.31567100  0.63134200  1.0
