# generated using pymatgen
data_Th4AlGe
_symmetry_space_group_name_H-M   I422
_cell_length_a   5.83306200
_cell_length_b   6.11132450
_cell_length_c   6.11132450
_cell_angle_alpha   76.83523194
_cell_angle_beta   61.49510343
_cell_angle_gamma   61.49510343
_symmetry_Int_Tables_number   97
_chemical_formula_structural   Th4AlGe
_chemical_formula_sum   'Th4 Al1 Ge1'
_cell_volume   168.23795620
_cell_formula_units_Z   1
loop_
 _symmetry_equiv_pos_site_id
 _symmetry_equiv_pos_as_xyz
  1  'x, y, z'
  2  'x+z, -z, y'
  3  'x+y+z, -y, -z'
  4  'x+y, z, -y'
  5  '-x-y-z, z, y'
  6  '-x-y, y, -z'
  7  '-x, -z, -y'
  8  '-x-z, -y, z'
loop_
 _atom_site_type_symbol
 _atom_site_label
 _atom_site_symmetry_multiplicity
 _atom_site_fract_x
 _atom_site_fract_y
 _atom_site_fract_z
 _atom_site_occupancy
  Th  Th0  4  0.09017200  0.81965500  0.50000000  1.0
  Al  Al1  1  0.50000000  0.00000000  0.00000000  1.0
  Ge  Ge2  1  0.00000000  0.00000000  0.00000000  1.0
