# generated using pymatgen
data_Nb12Al3Ge
_symmetry_space_group_name_H-M   Pmmm
_cell_length_a   5.19889500
_cell_length_b   5.20215300
_cell_length_c   10.39360800
_cell_angle_alpha   90.00000000
_cell_angle_beta   90.00000000
_cell_angle_gamma   90.00000000
_symmetry_Int_Tables_number   47
_chemical_formula_structural   Nb12Al3Ge
_chemical_formula_sum   'Nb12 Al3 Ge1'
_cell_volume   281.09977660
_cell_formula_units_Z   1
loop_
 _symmetry_equiv_pos_site_id
 _symmetry_equiv_pos_as_xyz
  1  'x, y, z'
  2  '-x, -y, -z'
  3  '-x, -y, z'
  4  'x, y, -z'
  5  'x, -y, -z'
  6  '-x, y, z'
  7  '-x, y, -z'
  8  'x, -y, z'
loop_
 _atom_site_type_symbol
 _atom_site_label
 _atom_site_symmetry_multiplicity
 _atom_site_fract_x
 _atom_site_fract_y
 _atom_site_fract_z
 _atom_site_occupancy
  Nb  Nb0  4  0.00000000  0.25030400  0.25022800  1.0
  Nb  Nb1  2  0.24931600  0.50000000  0.00000000  1.0
  Nb  Nb2  2  0.24993600  0.50000000  0.50000000  1.0
  Nb  Nb3  2  0.50000000  0.00000000  0.12504100  1.0
  Nb  Nb4  2  0.50000000  0.00000000  0.37510100  1.0
  Al  Al5  2  0.50000000  0.50000000  0.25013700  1.0
  Al  Al6  1  0.00000000  0.00000000  0.00000000  1.0
  Ge  Ge7  1  0.00000000  0.00000000  0.50000000  1.0
