# generated using pymatgen
data_Al0.9Cr2.1
_symmetry_space_group_name_H-M   Fmmm
_cell_length_a   2.58723738
_cell_length_b   2.58723738
_cell_length_c   6.27377808
_cell_angle_alpha   97.44590641
_cell_angle_beta   97.44590641
_cell_angle_gamma   111.80910138
_symmetry_Int_Tables_number   69
_chemical_formula_structural   Al0.9Cr2.1
_chemical_formula_sum   'Al0.9 Cr2.1'
_cell_volume   37.93351677
_cell_formula_units_Z   1
loop_
 _symmetry_equiv_pos_site_id
 _symmetry_equiv_pos_as_xyz
  1  'x, y, z'
  2  '-x, -y, -z'
  3  '-x+z, -y+z, z'
  4  'x-z, y-z, -z'
  5  'y-z, x-z, -z'
  6  '-y+z, -x+z, z'
  7  '-y, -x, -z'
  8  'y, x, z'
loop_
 _atom_site_type_symbol
 _atom_site_label
 _atom_site_symmetry_multiplicity
 _atom_site_fract_x
 _atom_site_fract_y
 _atom_site_fract_z
 _atom_site_occupancy
  Al  Al0  1  0.00000000  0.00000000  0.00000000  0.9
  Cr  Cr1  1  0.00000000  0.00000000  0.00000000  0.1
  Cr  Cr2  2  0.32613500  0.32613500  0.65227000  1.0
