# generated using pymatgen
data_Al
_symmetry_space_group_name_H-M   P1
_cell_length_a   11.90356656
_cell_length_b   12.11408711
_cell_length_c   12.27731983
_cell_angle_alpha   92.42355869
_cell_angle_beta   92.36207185
_cell_angle_gamma   96.20779872
_symmetry_Int_Tables_number   1
_chemical_formula_structural   Al
_chemical_formula_sum   Al100
_cell_volume   1756.57501867
_cell_formula_units_Z   100
loop_
 _symmetry_equiv_pos_site_id
 _symmetry_equiv_pos_as_xyz
  1  'x, y, z'
loop_
 _atom_site_type_symbol
 _atom_site_label
 _atom_site_symmetry_multiplicity
 _atom_site_fract_x
 _atom_site_fract_y
 _atom_site_fract_z
 _atom_site_occupancy
  Al  Al0  1  0.01549711  0.76316633  0.20291978  1.0
  Al  Al1  1  0.01696892  0.91196924  0.92800475  1.0
  Al  Al2  1  0.04431413  0.23514594  0.62624431  1.0
  Al  Al3  1  0.05325289  0.56433872  0.28949465  1.0
  Al  Al4  1  0.06787805  0.75089113  0.43243972  1.0
  Al  Al5  1  0.08821952  0.88813293  0.63654103  1.0
  Al  Al6  1  0.09177448  0.73872397  0.79816558  1.0
  Al  Al7  1  0.09655891  0.06152691  0.48271368  1.0
  Al  Al8  1  0.10134814  0.08560806  0.80092434  1.0
  Al  Al9  1  0.10384056  0.53474360  0.87409103  1.0
  Al  Al10  1  0.10695077  0.30602092  0.87188897  1.0
  Al  Al11  1  0.12941881  0.72748905  0.01690348  1.0
  Al  Al12  1  0.13434430  0.49630258  0.09043591  1.0
  Al  Al13  1  0.13733628  0.35627282  0.28179147  1.0
  Al  Al14  1  0.14430568  0.95294417  0.11369727  1.0
  Al  Al15  1  0.16134678  0.50614290  0.46857999  1.0
  Al  Al16  1  0.18319970  0.27128401  0.08244068  1.0
  Al  Al17  1  0.18384392  0.44716185  0.67655690  1.0
  Al  Al18  1  0.18889705  0.13526487  0.26949750  1.0
  Al  Al19  1  0.19073965  0.91298546  0.32271656  1.0
  Al  Al20  1  0.19285397  0.68939440  0.61430087  1.0
  Al  Al21  1  0.20542297  0.28135088  0.48079628  1.0
  Al  Al22  1  0.23946307  0.92346347  0.86527058  1.0
  Al  Al23  1  0.26539541  0.25204911  0.72630080  1.0
  Al  Al24  1  0.26689265  0.04366914  0.65594792  1.0
  Al  Al25  1  0.28190270  0.87336733  0.51243315  1.0
  Al  Al26  1  0.28544483  0.68538390  0.37655750  1.0
  Al  Al27  1  0.28937584  0.09896748  0.00764671  1.0
  Al  Al28  1  0.30001909  0.78772378  0.17962001  1.0
  Al  Al29  1  0.30974623  0.41143913  0.93584614  1.0
  Al  Al30  1  0.30978688  0.62089083  0.79918775  1.0
  Al  Al31  1  0.32743295  0.44846980  0.18257055  1.0
  Al  Al32  1  0.33039108  0.08708397  0.44457560  1.0
  Al  Al33  1  0.33582008  0.62557793  0.02860915  1.0
  Al  Al34  1  0.37125470  0.84546530  0.71479959  1.0
  Al  Al35  1  0.37351028  0.02568560  0.21822788  1.0
  Al  Al36  1  0.37586267  0.58303271  0.57609077  1.0
  Al  Al37  1  0.38269006  0.46702719  0.39439223  1.0
  Al  Al38  1  0.39242590  0.25957744  0.31094714  1.0
  Al  Al39  1  0.41193921  0.43112621  0.73146766  1.0
  Al  Al40  1  0.41411628  0.92113557  0.02551423  1.0
  Al  Al41  1  0.41670133  0.11580347  0.82051438  1.0
  Al  Al42  1  0.42573368  0.28905694  0.53850383  1.0
  Al  Al43  1  0.42705549  0.27613711  0.09638379  1.0
  Al  Al44  1  0.46068247  0.64307968  0.24225945  1.0
  Al  Al45  1  0.47351463  0.75968667  0.89964157  1.0
  Al  Al46  1  0.48103476  0.79318418  0.50256157  1.0
  Al  Al47  1  0.49184574  0.03155221  0.61399636  1.0
  Al  Al48  1  0.51128703  0.49205017  0.06489007  1.0
  Al  Al49  1  0.51880390  0.32988072  0.90107693  1.0
  Al  Al50  1  0.52137525  0.98489365  0.39139245  1.0
  Al  Al51  1  0.53910073  0.85713638  0.20874253  1.0
  Al  Al52  1  0.53964746  0.70598667  0.69089844  1.0
  Al  Al53  1  0.55075548  0.11969017  0.00897362  1.0
  Al  Al54  1  0.57169014  0.56211514  0.84934584  1.0
  Al  Al55  1  0.57358240  0.25840459  0.69941020  1.0
  Al  Al56  1  0.57362957  0.96216534  0.83027350  1.0
  Al  Al57  1  0.57426510  0.15845049  0.23429637  1.0
  Al  Al58  1  0.58214439  0.47100500  0.59461747  1.0
  Al  Al59  1  0.59272743  0.61323802  0.43274388  1.0
  Al  Al60  1  0.60636842  0.37782693  0.36873927  1.0
  Al  Al61  1  0.61816789  0.17899286  0.47902504  1.0
  Al  Al62  1  0.62207605  0.69925163  0.05598702  1.0
  Al  Al63  1  0.66689049  0.93054059  0.04442316  1.0
  Al  Al64  1  0.67269488  0.56474683  0.22453598  1.0
  Al  Al65  1  0.67436049  0.34168802  0.12996498  1.0
  Al  Al66  1  0.68200066  0.82968875  0.40710938  1.0
  Al  Al67  1  0.68614555  0.88151319  0.63431838  1.0
  Al  Al68  1  0.69961594  0.77730301  0.85462393  1.0
  Al  Al69  1  0.70848692  0.09723875  0.70227168  1.0
  Al  Al70  1  0.71688179  0.24240074  0.89920988  1.0
  Al  Al71  1  0.72733079  0.50031508  0.98403361  1.0
  Al  Al72  1  0.73556225  0.43174298  0.75826824  1.0
  Al  Al73  1  0.73641544  0.00606558  0.26945967  1.0
  Al  Al74  1  0.74504419  0.64934185  0.64567428  1.0
  Al  Al75  1  0.77882728  0.78630276  0.21328724  1.0
  Al  Al76  1  0.78033336  0.23757271  0.31897832  1.0
  Al  Al77  1  0.78102446  0.14539454  0.09294576  1.0
  Al  Al78  1  0.79831780  0.47173352  0.50860823  1.0
  Al  Al79  1  0.80953289  0.26867046  0.59251514  1.0
  Al  Al80  1  0.81396566  0.00372113  0.88140142  1.0
  Al  Al81  1  0.84132097  0.45028170  0.28782681  1.0
  Al  Al82  1  0.84328031  0.65793120  0.37980350  1.0
  Al  Al83  1  0.85817083  0.08868775  0.45938496  1.0
  Al  Al84  1  0.86200291  0.74901825  0.01067813  1.0
  Al  Al85  1  0.87915158  0.83862865  0.52583241  1.0
  Al  Al86  1  0.88650319  0.60890598  0.83169647  1.0
  Al  Al87  1  0.89120367  0.82168634  0.74911723  1.0
  Al  Al88  1  0.90372725  0.95830799  0.11514060  1.0
  Al  Al89  1  0.90375334  0.20922495  0.79586788  1.0
  Al  Al90  1  0.91087737  0.39827366  0.92609354  1.0
  Al  Al91  1  0.91551798  0.02740644  0.66022403  1.0
  Al  Al92  1  0.92286547  0.56103632  0.09931805  1.0
  Al  Al93  1  0.94877118  0.33082190  0.13149905  1.0
  Al  Al94  1  0.95573169  0.93057416  0.33531366  1.0
  Al  Al95  1  0.95704110  0.43342836  0.69494235  1.0
  Al  Al96  1  0.96419995  0.63646928  0.59760016  1.0
  Al  Al97  1  0.96945003  0.14875526  0.25687411  1.0
  Al  Al98  1  0.97371887  0.33466311  0.43768651  1.0
  Al  Al99  1  0.99753463  0.13658854  0.00136466  1.0
