# generated using pymatgen
data_Al
_symmetry_space_group_name_H-M   P1
_cell_length_a   12.12531129
_cell_length_b   12.13442360
_cell_length_c   12.27628938
_cell_angle_alpha   80.11314805
_cell_angle_beta   84.94340365
_cell_angle_gamma   85.50725113
_symmetry_Int_Tables_number   1
_chemical_formula_structural   Al
_chemical_formula_sum   Al100
_cell_volume   1768.82525063
_cell_formula_units_Z   100
loop_
 _symmetry_equiv_pos_site_id
 _symmetry_equiv_pos_as_xyz
  1  'x, y, z'
loop_
 _atom_site_type_symbol
 _atom_site_label
 _atom_site_symmetry_multiplicity
 _atom_site_fract_x
 _atom_site_fract_y
 _atom_site_fract_z
 _atom_site_occupancy
  Al  Al0  1  0.00540626  0.27439678  0.19046319  1.0
  Al  Al1  1  0.01583024  0.69428477  0.18759483  1.0
  Al  Al2  1  0.01932935  0.15589066  0.81047693  1.0
  Al  Al3  1  0.03184290  0.74040536  0.96871015  1.0
  Al  Al4  1  0.03616422  0.02129134  0.61285735  1.0
  Al  Al5  1  0.04358234  0.58348053  0.40645438  1.0
  Al  Al6  1  0.04898117  0.48820029  0.07561880  1.0
  Al  Al7  1  0.06592928  0.02236294  0.25026374  1.0
  Al  Al8  1  0.08772699  0.75050015  0.74246476  1.0
  Al  Al9  1  0.08800396  0.36791949  0.72871588  1.0
  Al  Al10  1  0.09161378  0.93816665  0.83124348  1.0
  Al  Al11  1  0.09658304  0.94094172  0.05498201  1.0
  Al  Al12  1  0.12122380  0.37231884  0.35483152  1.0
  Al  Al13  1  0.14491835  0.22411433  0.57096095  1.0
  Al  Al14  1  0.14965941  0.17542115  0.99732411  1.0
  Al  Al15  1  0.15255314  0.92352281  0.44752636  1.0
  Al  Al16  1  0.16779540  0.69479850  0.53349539  1.0
  Al  Al17  1  0.18910699  0.15456133  0.34787539  1.0
  Al  Al18  1  0.19055216  0.75342650  0.29900201  1.0
  Al  Al19  1  0.20450460  0.55672150  0.19423311  1.0
  Al  Al20  1  0.20847242  0.55465875  0.74147605  1.0
  Al  Al21  1  0.20918123  0.38411753  0.91625819  1.0
  Al  Al22  1  0.22571136  0.32604807  0.14516344  1.0
  Al  Al23  1  0.22657053  0.59360438  0.95252441  1.0
  Al  Al24  1  0.23967462  0.76802199  0.06998887  1.0
  Al  Al25  1  0.25129742  0.03711599  0.69556235  1.0
  Al  Al26  1  0.26601331  0.21393224  0.79417116  1.0
  Al  Al27  1  0.26756457  0.53080109  0.41079272  1.0
  Al  Al28  1  0.27291348  0.08429316  0.15688245  1.0
  Al  Al29  1  0.28135721  0.80151165  0.84396897  1.0
  Al  Al30  1  0.28863897  0.39188256  0.61256786  1.0
  Al  Al31  1  0.29542877  0.83328993  0.62084169  1.0
  Al  Al32  1  0.29893261  0.00342384  0.93753296  1.0
  Al  Al33  1  0.33319425  0.29459898  0.43059700  1.0
  Al  Al34  1  0.34139015  0.05258183  0.48631950  1.0
  Al  Al35  1  0.36000564  0.87621715  0.18905391  1.0
  Al  Al36  1  0.37178729  0.78306667  0.41543895  1.0
  Al  Al37  1  0.37950765  0.60228065  0.59392501  1.0
  Al  Al38  1  0.40082491  0.45044557  0.23691461  1.0
  Al  Al39  1  0.40819794  0.21408838  0.24026638  1.0
  Al  Al40  1  0.41026373  0.40968511  0.01092100  1.0
  Al  Al41  1  0.41582200  0.61825189  0.06027310  1.0
  Al  Al42  1  0.42212189  0.37551886  0.79076563  1.0
  Al  Al43  1  0.43542851  0.19051829  0.62284050  1.0
  Al  Al44  1  0.43647042  0.62993561  0.80999084  1.0
  Al  Al45  1  0.45213325  0.94013566  0.76524967  1.0
  Al  Al46  1  0.47186107  0.83375399  0.98651702  1.0
  Al  Al47  1  0.47780836  0.98171922  0.32314017  1.0
  Al  Al48  1  0.48230284  0.13644825  0.85046373  1.0
  Al  Al49  1  0.48392129  0.57313944  0.38552833  1.0
  Al  Al50  1  0.49021829  0.07624540  0.07596177  1.0
  Al  Al51  1  0.51063901  0.88103196  0.55840096  1.0
  Al  Al52  1  0.52175723  0.41038071  0.56726801  1.0
  Al  Al53  1  0.55663414  0.33348169  0.35829311  1.0
  Al  Al54  1  0.57473375  0.10191729  0.45516666  1.0
  Al  Al55  1  0.58274611  0.86259649  0.17844811  1.0
  Al  Al56  1  0.59470547  0.28053935  0.95763210  1.0
  Al  Al57  1  0.59481428  0.64227052  0.60613931  1.0
  Al  Al58  1  0.59914206  0.63237852  0.18413545  1.0
  Al  Al59  1  0.60525115  0.75276927  0.39407993  1.0
  Al  Al60  1  0.61131096  0.41768172  0.12573611  1.0
  Al  Al61  1  0.61432602  0.47806594  0.79239470  1.0
  Al  Al62  1  0.62400603  0.63611128  0.95397714  1.0
  Al  Al63  1  0.62558727  0.16558935  0.22955488  1.0
  Al  Al64  1  0.62922644  0.78962512  0.76120982  1.0
  Al  Al65  1  0.63555869  0.06009792  0.66546699  1.0
  Al  Al66  1  0.64181841  0.27073002  0.72629650  1.0
  Al  Al67  1  0.64768281  0.96516215  0.88831870  1.0
  Al  Al68  1  0.70579231  0.50873306  0.36846461  1.0
  Al  Al69  1  0.71424064  0.94341420  0.32844668  1.0
  Al  Al70  1  0.71449982  0.25879145  0.50293575  1.0
  Al  Al71  1  0.71693158  0.03727295  0.08150263  1.0
  Al  Al72  1  0.73074302  0.83532030  0.55117994  1.0
  Al  Al73  1  0.73940706  0.79706572  0.04362262  1.0
  Al  Al74  1  0.73955964  0.45405834  0.58718295  1.0
  Al  Al75  1  0.77418547  0.46128308  0.93350515  1.0
  Al  Al76  1  0.78162587  0.32234709  0.28260299  1.0
  Al  Al77  1  0.78177194  0.26697580  0.07632482  1.0
  Al  Al78  1  0.78653922  0.16184980  0.87750978  1.0
  Al  Al79  1  0.79135192  0.61521285  0.71435221  1.0
  Al  Al80  1  0.79309178  0.70754632  0.25787673  1.0
  Al  Al81  1  0.81650984  0.03814229  0.49002862  1.0
  Al  Al82  1  0.82734650  0.64949565  0.47905096  1.0
  Al  Al83  1  0.82819077  0.94314306  0.71687085  1.0
  Al  Al84  1  0.83430661  0.58660045  0.07694470  1.0
  Al  Al85  1  0.84095921  0.74388496  0.85702844  1.0
  Al  Al86  1  0.85273918  0.10696838  0.26235767  1.0
  Al  Al87  1  0.86212988  0.36986099  0.75505063  1.0
  Al  Al88  1  0.86277058  0.17420663  0.65171602  1.0
  Al  Al89  1  0.88575302  0.94703794  0.93097656  1.0
  Al  Al90  1  0.89009558  0.90159456  0.16308452  1.0
  Al  Al91  1  0.92366590  0.48342688  0.27698513  1.0
  Al  Al92  1  0.94150248  0.11335438  0.04563678  1.0
  Al  Al93  1  0.95325016  0.81520493  0.57867193  1.0
  Al  Al94  1  0.95764232  0.37958170  0.53140689  1.0
  Al  Al95  1  0.96629002  0.19470195  0.42183517  1.0
  Al  Al96  1  0.97158266  0.82153060  0.36151886  1.0
  Al  Al97  1  0.97597707  0.33415322  0.95053583  1.0
  Al  Al98  1  0.98655635  0.55690100  0.86143319  1.0
  Al  Al99  1  0.99741741  0.56795244  0.63007737  1.0
