# generated using pymatgen
data_Al
_symmetry_space_group_name_H-M   P1
_cell_length_a   11.78519930
_cell_length_b   12.16816738
_cell_length_c   12.37806644
_cell_angle_alpha   93.04889641
_cell_angle_beta   93.67854664
_cell_angle_gamma   96.53800846
_symmetry_Int_Tables_number   1
_chemical_formula_structural   Al
_chemical_formula_sum   Al100
_cell_volume   1756.61127551
_cell_formula_units_Z   100
loop_
 _symmetry_equiv_pos_site_id
 _symmetry_equiv_pos_as_xyz
  1  'x, y, z'
loop_
 _atom_site_type_symbol
 _atom_site_label
 _atom_site_symmetry_multiplicity
 _atom_site_fract_x
 _atom_site_fract_y
 _atom_site_fract_z
 _atom_site_occupancy
  Al  Al0  1  0.01443193  0.83826879  0.27933210  1.0
  Al  Al1  1  0.02524367  0.93874332  0.05716370  1.0
  Al  Al2  1  0.02774111  0.53853925  0.35221402  1.0
  Al  Al3  1  0.03189306  0.11508408  0.71467298  1.0
  Al  Al4  1  0.03437280  0.36392248  0.69117370  1.0
  Al  Al5  1  0.05380325  0.20547538  0.51535472  1.0
  Al  Al6  1  0.06154749  0.30447321  0.33196147  1.0
  Al  Al7  1  0.06982958  0.75424547  0.90480272  1.0
  Al  Al8  1  0.08580812  0.89901053  0.63820954  1.0
  Al  Al9  1  0.09235855  0.55036479  0.56195905  1.0
  Al  Al10  1  0.09248249  0.14399984  0.93658678  1.0
  Al  Al11  1  0.09456210  0.15170947  0.16094561  1.0
  Al  Al12  1  0.10565407  0.43670070  0.16832873  1.0
  Al  Al13  1  0.12312629  0.37449983  0.91667645  1.0
  Al  Al14  1  0.13095268  0.58680137  0.01030227  1.0
  Al  Al15  1  0.15504648  0.56020642  0.77566289  1.0
  Al  Al16  1  0.15681325  0.67511338  0.22142415  1.0
  Al  Al17  1  0.17696050  0.91895438  0.43412478  1.0
  Al  Al18  1  0.21031441  0.97060999  0.21030127  1.0
  Al  Al19  1  0.21821647  0.14352627  0.37445775  1.0
  Al  Al20  1  0.22370579  0.69344886  0.43506159  1.0
  Al  Al21  1  0.22705125  0.08756002  0.59046893  1.0
  Al  Al22  1  0.22895801  0.03189352  0.80689538  1.0
  Al  Al23  1  0.22977365  0.26528249  0.75467127  1.0
  Al  Al24  1  0.23222417  0.79879007  0.76095081  1.0
  Al  Al25  1  0.23265597  0.37642814  0.55972567  1.0
  Al  Al26  1  0.23834230  0.90814855  0.98492730  1.0
  Al  Al27  1  0.25068807  0.47761255  0.36385396  1.0
  Al  Al28  1  0.28392011  0.30225700  0.21258053  1.0
  Al  Al29  1  0.30183495  0.13554027  0.05566338  1.0
  Al  Al30  1  0.30962077  0.48763542  0.09397133  1.0
  Al  Al31  1  0.31860074  0.63082047  0.62651139  1.0
  Al  Al32  1  0.33236909  0.73791642  0.09759475  1.0
  Al  Al33  1  0.33736763  0.65237856  0.89507980  1.0
  Al  Al34  1  0.36320812  0.86158223  0.32070696  1.0
  Al  Al35  1  0.36526569  0.43121968  0.88343054  1.0
  Al  Al36  1  0.37103616  0.84250682  0.55807368  1.0
  Al  Al37  1  0.39637682  0.31969476  0.41933258  1.0
  Al  Al38  1  0.39647670  0.64477635  0.28212003  1.0
  Al  Al39  1  0.41396598  0.20138702  0.87085775  1.0
  Al  Al40  1  0.41721487  0.24261061  0.62565382  1.0
  Al  Al41  1  0.42467198  0.04661898  0.46948700  1.0
  Al  Al42  1  0.42584847  0.13873209  0.26674693  1.0
  Al  Al43  1  0.42674198  0.03071085  0.69830241  1.0
  Al  Al44  1  0.42842118  0.95515706  0.12775158  1.0
  Al  Al45  1  0.43088236  0.46468883  0.67980629  1.0
  Al  Al46  1  0.44839370  0.98131334  0.90797981  1.0
  Al  Al47  1  0.46217317  0.80048445  0.76650491  1.0
  Al  Al48  1  0.47122437  0.54716148  0.46924460  1.0
  Al  Al49  1  0.48369458  0.44599368  0.25821695  1.0
  Al  Al50  1  0.48424473  0.35185189  0.05340597  1.0
  Al  Al51  1  0.51577010  0.58644286  0.05864387  1.0
  Al  Al52  1  0.52700746  0.78864169  0.97931464  1.0
  Al  Al53  1  0.54185066  0.14652001  0.06208168  1.0
  Al  Al54  1  0.55342177  0.60968863  0.82992126  1.0
  Al  Al55  1  0.56181164  0.82809493  0.43283735  1.0
  Al  Al56  1  0.57177406  0.80772054  0.20396805  1.0
  Al  Al57  1  0.58156485  0.34889318  0.81412916  1.0
  Al  Al58  1  0.58370004  0.69318769  0.61681713  1.0
  Al  Al59  1  0.59421136  0.21812973  0.44040144  1.0
  Al  Al60  1  0.60386858  0.92154423  0.64282661  1.0
  Al  Al61  1  0.61509632  0.40191258  0.58569096  1.0
  Al  Al62  1  0.62582816  0.16739485  0.65715676  1.0
  Al  Al63  1  0.63107576  0.03196285  0.27159257  1.0
  Al  Al64  1  0.63337152  0.64139615  0.32503149  1.0
  Al  Al65  1  0.63893137  0.27071717  0.23137852  1.0
  Al  Al66  1  0.64978479  0.12526679  0.86887970  1.0
  Al  Al67  1  0.66079638  0.97368496  0.05024551  1.0
  Al  Al68  1  0.68723236  0.43625329  0.38624892  1.0
  Al  Al69  1  0.68802890  0.48786311  0.15758155  1.0
  Al  Al70  1  0.69371894  0.87838504  0.84737987  1.0
  Al  Al71  1  0.70071056  0.03179435  0.48517726  1.0
  Al  Al72  1  0.72028869  0.51330211  0.93223441  1.0
  Al  Al73  1  0.72725778  0.70579479  0.08223766  1.0
  Al  Al74  1  0.72870258  0.30298829  0.01647533  1.0
  Al  Al75  1  0.75355939  0.59751700  0.71772768  1.0
  Al  Al76  1  0.78619982  0.62276558  0.50305102  1.0
  Al  Al77  1  0.79195313  0.83605197  0.38663421  1.0
  Al  Al78  1  0.79291534  0.38581506  0.72678813  1.0
  Al  Al79  1  0.80289809  0.03907761  0.72847221  1.0
  Al  Al80  1  0.81257460  0.82152320  0.63654953  1.0
  Al  Al81  1  0.82064865  0.14280683  0.17331767  1.0
  Al  Al82  1  0.82409962  0.20967607  0.38549761  1.0
  Al  Al83  1  0.82626685  0.90916263  0.18033519  1.0
  Al  Al84  1  0.83683932  0.73050793  0.89404621  1.0
  Al  Al85  1  0.84808246  0.21253095  0.60401266  1.0
  Al  Al86  1  0.85512656  0.64212335  0.27159051  1.0
  Al  Al87  1  0.85978899  0.05803860  0.96749399  1.0
  Al  Al88  1  0.86291786  0.38288068  0.25171208  1.0
  Al  Al89  1  0.88987721  0.41592110  0.50636581  1.0
  Al  Al90  1  0.89594559  0.24286819  0.84280687  1.0
  Al  Al91  1  0.90541985  0.49889605  0.07230373  1.0
  Al  Al92  1  0.92357945  0.99900543  0.52525099  1.0
  Al  Al93  1  0.94323829  0.52808188  0.85542029  1.0
  Al  Al94  1  0.95727306  0.28038553  0.05561665  1.0
  Al  Al95  1  0.96381606  0.72108856  0.09135824  1.0
  Al  Al96  1  0.96459009  0.92382144  0.82532480  1.0
  Al  Al97  1  0.97789609  0.05721248  0.32238239  1.0
  Al  Al98  1  0.98279199  0.68980085  0.69539662  1.0
  Al  Al99  1  0.99531641  0.74309680  0.47581964  1.0
