# generated using pymatgen
data_Al
_symmetry_space_group_name_H-M   P1
_cell_length_a   11.98330792
_cell_length_b   12.27492286
_cell_length_c   12.33519817
_cell_angle_alpha   92.56703388
_cell_angle_beta   94.32890641
_cell_angle_gamma   97.27133127
_symmetry_Int_Tables_number   1
_chemical_formula_structural   Al
_chemical_formula_sum   Al100
_cell_volume   1791.99881370
_cell_formula_units_Z   100
loop_
 _symmetry_equiv_pos_site_id
 _symmetry_equiv_pos_as_xyz
  1  'x, y, z'
loop_
 _atom_site_type_symbol
 _atom_site_label
 _atom_site_symmetry_multiplicity
 _atom_site_fract_x
 _atom_site_fract_y
 _atom_site_fract_z
 _atom_site_occupancy
  Al  Al0  1  0.01191490  0.30624156  0.31467739  1.0
  Al  Al1  1  0.02608862  0.92867889  0.14277175  1.0
  Al  Al2  1  0.05372701  0.26396947  0.52548458  1.0
  Al  Al3  1  0.05678224  0.51332538  0.03253476  1.0
  Al  Al4  1  0.07357327  0.28923882  0.01157828  1.0
  Al  Al5  1  0.07493774  0.06477276  0.96024172  1.0
  Al  Al6  1  0.08677656  0.06772369  0.73504905  1.0
  Al  Al7  1  0.08760091  0.47643177  0.60236111  1.0
  Al  Al8  1  0.10201933  0.15322379  0.18016445  1.0
  Al  Al9  1  0.10632449  0.04312152  0.51005814  1.0
  Al  Al10  1  0.11136789  0.74647420  0.05926766  1.0
  Al  Al11  1  0.11813637  0.57668048  0.41532774  1.0
  Al  Al12  1  0.12277654  0.71576264  0.82419116  1.0
  Al  Al13  1  0.12424349  0.83236063  0.63887948  1.0
  Al  Al14  1  0.13292485  0.49404979  0.82258792  1.0
  Al  Al15  1  0.18649502  0.77589833  0.33376370  1.0
  Al  Al16  1  0.18715375  0.00047624  0.30918537  1.0
  Al  Al17  1  0.19618951  0.59018165  0.20740215  1.0
  Al  Al18  1  0.20177872  0.27778603  0.82600546  1.0
  Al  Al19  1  0.21110915  0.36738981  0.20552550  1.0
  Al  Al20  1  0.21305977  0.22306944  0.38244034  1.0
  Al  Al21  1  0.21359978  0.93919516  0.85863260  1.0
  Al  Al22  1  0.24053145  0.97370302  0.08740186  1.0
  Al  Al23  1  0.25096839  0.64616206  0.66016465  1.0
  Al  Al24  1  0.25711173  0.42838911  0.47264644  1.0
  Al  Al25  1  0.26393260  0.21400946  0.62181621  1.0
  Al  Al26  1  0.26760167  0.43003534  0.99972172  1.0
  Al  Al27  1  0.27704588  0.18984772  0.02444297  1.0
  Al  Al28  1  0.27829290  0.64804790  0.97058241  1.0
  Al  Al29  1  0.29658319  0.00058155  0.65994917  1.0
  Al  Al30  1  0.31248260  0.43271905  0.68954555  1.0
  Al  Al31  1  0.32129174  0.81873997  0.53488353  1.0
  Al  Al32  1  0.32414259  0.78215478  0.16169267  1.0
  Al  Al33  1  0.35164045  0.62877638  0.40883578  1.0
  Al  Al34  1  0.35597345  0.09003364  0.46529169  1.0
  Al  Al35  1  0.36680604  0.14153270  0.83001172  1.0
  Al  Al36  1  0.36938780  0.80340504  0.82544585  1.0
  Al  Al37  1  0.37207442  0.16320404  0.24154206  1.0
  Al  Al38  1  0.39405219  0.91450737  0.34586749  1.0
  Al  Al39  1  0.40820652  0.56836822  0.14580010  1.0
  Al  Al40  1  0.41575206  0.40711192  0.32555406  1.0
  Al  Al41  1  0.43769988  0.60145251  0.82517216  1.0
  Al  Al42  1  0.44056010  0.34055943  0.11571711  1.0
  Al  Al43  1  0.44237540  0.38693204  0.88291683  1.0
  Al  Al44  1  0.45556611  0.31880800  0.52230228  1.0
  Al  Al45  1  0.45805037  0.97598477  0.14924417  1.0
  Al  Al46  1  0.48052692  0.68189432  0.62765396  1.0
  Al  Al47  1  0.49453660  0.76055490  0.03311502  1.0
  Al  Al48  1  0.50259330  0.92141516  0.69000104  1.0
  Al  Al49  1  0.50872929  0.14070736  0.64682523  1.0
  Al  Al50  1  0.51156052  0.13752200  0.01255764  1.0
  Al  Al51  1  0.51551114  0.73171030  0.29089824  1.0
  Al  Al52  1  0.54800661  0.84299852  0.48729339  1.0
  Al  Al53  1  0.54924538  0.47911692  0.67695865  1.0
  Al  Al54  1  0.56344790  0.57227377  0.44484152  1.0
  Al  Al55  1  0.58192999  0.13901950  0.43880779  1.0
  Al  Al56  1  0.58280726  0.24549520  0.83516603  1.0
  Al  Al57  1  0.59336904  0.57033697  0.98983896  1.0
  Al  Al58  1  0.60609990  0.49280377  0.21196866  1.0
  Al  Al59  1  0.60825412  0.82585531  0.85579723  1.0
  Al  Al60  1  0.61515894  0.17242850  0.22511931  1.0
  Al  Al61  1  0.62812040  0.95610140  0.30520610  1.0
  Al  Al62  1  0.63611793  0.35753522  0.37509300  1.0
  Al  Al63  1  0.64207173  0.35822150  0.03269385  1.0
  Al  Al64  1  0.64535730  0.94644996  0.06209468  1.0
  Al  Al65  1  0.66414944  0.04677279  0.84854825  1.0
  Al  Al66  1  0.68687088  0.70529906  0.17824009  1.0
  Al  Al67  1  0.68994253  0.02134608  0.59135841  1.0
  Al  Al68  1  0.69632206  0.64387688  0.79365104  1.0
  Al  Al69  1  0.70261301  0.80252684  0.64356373  1.0
  Al  Al70  1  0.70405648  0.36484586  0.58656711  1.0
  Al  Al71  1  0.72106429  0.43456513  0.83384945  1.0
  Al  Al72  1  0.74695288  0.17230238  0.04790194  1.0
  Al  Al73  1  0.74701080  0.78377618  0.41256287  1.0
  Al  Al74  1  0.75524332  0.59476064  0.56670822  1.0
  Al  Al75  1  0.75754928  0.21609020  0.71997844  1.0
  Al  Al76  1  0.78150430  0.75530039  0.99448446  1.0
  Al  Al77  1  0.79416090  0.34569156  0.22026041  1.0
  Al  Al78  1  0.79548144  0.58267943  0.33546027  1.0
  Al  Al79  1  0.80450989  0.54245138  0.08757945  1.0
  Al  Al80  1  0.81505025  0.22713325  0.43005281  1.0
  Al  Al81  1  0.81834361  0.89731374  0.21369973  1.0
  Al  Al82  1  0.84140148  0.01171427  0.40997604  1.0
  Al  Al83  1  0.84955741  0.95213978  0.77518813  1.0
  Al  Al84  1  0.85599174  0.98827001  0.01055599  1.0
  Al  Al85  1  0.87006190  0.36137622  0.98187360  1.0
  Al  Al86  1  0.87180418  0.12541575  0.22623400  1.0
  Al  Al87  1  0.89461968  0.44486543  0.46361867  1.0
  Al  Al88  1  0.89685834  0.16229132  0.88414882  1.0
  Al  Al89  1  0.89779437  0.49480023  0.70346067  1.0
  Al  Al90  1  0.90661844  0.11436651  0.61027339  1.0
  Al  Al91  1  0.91048381  0.72863479  0.71525756  1.0
  Al  Al92  1  0.91214721  0.60918390  0.90223076  1.0
  Al  Al93  1  0.91891513  0.89526909  0.57414152  1.0
  Al  Al94  1  0.94084165  0.71541245  0.19875663  1.0
  Al  Al95  1  0.96396910  0.68484865  0.50102878  1.0
  Al  Al96  1  0.97794544  0.50037875  0.23825483  1.0
  Al  Al97  1  0.98187717  0.84559413  0.91247770  1.0
  Al  Al98  1  0.99032616  0.30432668  0.73744592  1.0
  Al  Al99  1  0.99712069  0.86847862  0.36925419  1.0
