# generated using pymatgen
data_Al
_symmetry_space_group_name_H-M   P1
_cell_length_a   11.98844119
_cell_length_b   12.16625753
_cell_length_c   12.17820768
_cell_angle_alpha   89.09399117
_cell_angle_beta   87.44359046
_cell_angle_gamma   95.22361299
_symmetry_Int_Tables_number   1
_chemical_formula_structural   Al
_chemical_formula_sum   Al100
_cell_volume   1766.75613273
_cell_formula_units_Z   100
loop_
 _symmetry_equiv_pos_site_id
 _symmetry_equiv_pos_as_xyz
  1  'x, y, z'
loop_
 _atom_site_type_symbol
 _atom_site_label
 _atom_site_symmetry_multiplicity
 _atom_site_fract_x
 _atom_site_fract_y
 _atom_site_fract_z
 _atom_site_occupancy
  Al  Al0  1  0.00557319  0.61355483  0.51699339  1.0
  Al  Al1  1  0.01721675  0.40141530  0.65382120  1.0
  Al  Al2  1  0.02114902  0.33601788  0.88738083  1.0
  Al  Al3  1  0.02418515  0.90888340  0.98347717  1.0
  Al  Al4  1  0.03857251  0.82584976  0.42566533  1.0
  Al  Al5  1  0.04245256  0.24926737  0.17187178  1.0
  Al  Al6  1  0.04427637  0.20222571  0.50932580  1.0
  Al  Al7  1  0.05481567  0.86516090  0.20496665  1.0
  Al  Al8  1  0.06602184  0.83908121  0.65095651  1.0
  Al  Al9  1  0.07959498  0.41996445  0.42776071  1.0
  Al  Al10  1  0.08950194  0.05778048  0.32215339  1.0
  Al  Al11  1  0.09540295  0.63114520  0.72069042  1.0
  Al  Al12  1  0.12089907  0.62258675  0.08837317  1.0
  Al  Al13  1  0.13668600  0.17586448  0.71959023  1.0
  Al  Al14  1  0.13885411  0.64984168  0.31817994  1.0
  Al  Al15  1  0.14089220  0.06387587  0.08531803  1.0
  Al  Al16  1  0.16857318  0.43704106  0.20511037  1.0
  Al  Al17  1  0.17353776  0.75478833  0.90089275  1.0
  Al  Al18  1  0.17409329  0.00933992  0.52807843  1.0
  Al  Al19  1  0.20216659  0.26576813  0.34462977  1.0
  Al  Al20  1  0.20905899  0.00443317  0.86642659  1.0
  Al  Al21  1  0.21542610  0.53104555  0.57074264  1.0
  Al  Al22  1  0.21768741  0.22911331  0.92471902  1.0
  Al  Al23  1  0.21866069  0.39626851  0.75946891  1.0
  Al  Al24  1  0.22068213  0.75859261  0.52078744  1.0
  Al  Al25  1  0.24189175  0.46337403  0.97640088  1.0
  Al  Al26  1  0.24933695  0.81174330  0.10728628  1.0
  Al  Al27  1  0.25632505  0.89422173  0.32748735  1.0
  Al  Al28  1  0.27056113  0.28331890  0.55795582  1.0
  Al  Al29  1  0.28167740  0.22558484  0.14226561  1.0
  Al  Al30  1  0.29872084  0.84803241  0.71790683  1.0
  Al  Al31  1  0.30165397  0.61130123  0.77857702  1.0
  Al  Al32  1  0.31510750  0.47992573  0.38090631  1.0
  Al  Al33  1  0.33126415  0.60151257  0.18116945  1.0
  Al  Al34  1  0.33204287  0.07374640  0.67621790  1.0
  Al  Al35  1  0.33886144  0.11148598  0.38326226  1.0
  Al  Al36  1  0.35379960  0.01510842  0.13195313  1.0
  Al  Al37  1  0.37835196  0.66842826  0.97597273  1.0
  Al  Al38  1  0.38116215  0.71161609  0.36850531  1.0
  Al  Al39  1  0.39634797  0.88780461  0.92991331  1.0
  Al  Al40  1  0.40886368  0.27839075  0.74370895  1.0
  Al  Al41  1  0.41359193  0.69290430  0.58920592  1.0
  Al  Al42  1  0.41626433  0.91861144  0.51656884  1.0
  Al  Al43  1  0.41908709  0.46641733  0.61556187  1.0
  Al  Al44  1  0.42411251  0.32229595  0.98087903  1.0
  Al  Al45  1  0.42483584  0.39001208  0.19660166  1.0
  Al  Al46  1  0.43597544  0.10803575  0.89694973  1.0
  Al  Al47  1  0.45887954  0.31799332  0.41073374  1.0
  Al  Al48  1  0.46888108  0.80261410  0.17060671  1.0
  Al  Al49  1  0.47198377  0.49716940  0.84571220  1.0
  Al  Al50  1  0.49251267  0.98494588  0.30744223  1.0
  Al  Al51  1  0.49930609  0.74528115  0.78794221  1.0
  Al  Al52  1  0.50574405  0.18305981  0.18363883  1.0
  Al  Al53  1  0.50782556  0.13976009  0.54135409  1.0
  Al  Al54  1  0.52660540  0.97170114  0.71813832  1.0
  Al  Al55  1  0.53285385  0.56242038  0.28495795  1.0
  Al  Al56  1  0.54271436  0.54952914  0.05622975  1.0
  Al  Al57  1  0.56655959  0.99037001  0.05354533  1.0
  Al  Al58  1  0.58392046  0.59288213  0.48769541  1.0
  Al  Al59  1  0.60284580  0.80838777  0.37486321  1.0
  Al  Al60  1  0.60443956  0.35142390  0.59145941  1.0
  Al  Al61  1  0.60520110  0.77981246  0.98232458  1.0
  Al  Al62  1  0.60983085  0.28835552  0.84196175  1.0
  Al  Al63  1  0.62455912  0.79944882  0.59887830  1.0
  Al  Al64  1  0.63252921  0.56445490  0.69571733  1.0
  Al  Al65  1  0.63812712  0.33977731  0.06462990  1.0
  Al  Al66  1  0.64622744  0.18372135  0.35824341  1.0
  Al  Al67  1  0.67186292  0.08275626  0.86415733  1.0
  Al  Al68  1  0.67290717  0.41208028  0.36838382  1.0
  Al  Al69  1  0.67312269  0.71492862  0.18093619  1.0
  Al  Al70  1  0.68362475  0.00054044  0.48710033  1.0
  Al  Al71  1  0.69486143  0.16539043  0.65288062  1.0
  Al  Al72  1  0.70378110  0.99383641  0.23378398  1.0
  Al  Al73  1  0.70850958  0.49453118  0.89378099  1.0
  Al  Al74  1  0.72910597  0.74236096  0.79465065  1.0
  Al  Al75  1  0.73617965  0.15048963  0.06630923  1.0
  Al  Al76  1  0.74230210  0.50725621  0.16973382  1.0
  Al  Al77  1  0.76616615  0.95966203  0.69923087  1.0
  Al  Al78  1  0.78438019  0.67505800  0.38052493  1.0
  Al  Al79  1  0.78814505  0.51391661  0.53828867  1.0
  Al  Al80  1  0.79608403  0.36894441  0.72249082  1.0
  Al  Al81  1  0.80089330  0.91976263  0.91889360  1.0
  Al  Al82  1  0.81243186  0.29515997  0.22292729  1.0
  Al  Al83  1  0.81356805  0.66029000  0.00063586  1.0
  Al  Al84  1  0.84182969  0.30377638  0.49377366  1.0
  Al  Al85  1  0.84237902  0.85143229  0.12129043  1.0
  Al  Al86  1  0.85149276  0.76808136  0.58023382  1.0
  Al  Al87  1  0.85239627  0.89435731  0.34934196  1.0
  Al  Al88  1  0.86973938  0.58249843  0.72826511  1.0
  Al  Al89  1  0.87059749  0.12638256  0.36472116  1.0
  Al  Al90  1  0.90235247  0.48638668  0.33747686  1.0
  Al  Al91  1  0.91099818  0.18329284  0.70413729  1.0
  Al  Al92  1  0.91877225  0.05939501  0.15395479  1.0
  Al  Al93  1  0.92471717  0.13358299  0.93610952  1.0
  Al  Al94  1  0.92539854  0.66505976  0.20011343  1.0
  Al  Al95  1  0.93440357  0.99631749  0.54159147  1.0
  Al  Al96  1  0.95166044  0.76533289  0.83484692  1.0
  Al  Al97  1  0.95825340  0.44349512  0.10624839  1.0
  Al  Al98  1  0.98834149  0.99287254  0.77548437  1.0
  Al  Al99  1  0.99879932  0.55420072  0.91470146  1.0
