# generated using pymatgen
data_La3Al11
_symmetry_space_group_name_H-M   Immm
_cell_length_a   4.44621600
_cell_length_b   8.59152859
_cell_length_c   8.59152859
_cell_angle_alpha   72.18536940
_cell_angle_beta   75.00375048
_cell_angle_gamma   75.00375047
_symmetry_Int_Tables_number   71
_chemical_formula_structural   La3Al11
_chemical_formula_sum   'La3 Al11'
_cell_volume   296.00542325
_cell_formula_units_Z   1
loop_
 _symmetry_equiv_pos_site_id
 _symmetry_equiv_pos_as_xyz
  1  'x, y, z'
  2  '-x, -y, -z'
  3  '-x-y-z, z, y'
  4  'x+y+z, -z, -y'
  5  'x+y+z, -y, -z'
  6  '-x-y-z, y, z'
  7  '-x, -z, -y'
  8  'x, z, y'
loop_
 _atom_site_type_symbol
 _atom_site_label
 _atom_site_symmetry_multiplicity
 _atom_site_fract_x
 _atom_site_fract_y
 _atom_site_fract_z
 _atom_site_occupancy
  La  La0  2  0.31622500  0.68377500  0.68377500  1.0
  La  La1  1  0.00000000  0.00000000  0.00000000  1.0
  Al  Al2  4  0.13798900  0.13579900  0.58822300  1.0
  Al  Al3  4  0.33492400  0.03304200  0.29711000  1.0
  Al  Al4  2  0.50000000  0.28551300  0.71448700  1.0
  Al  Al5  1  0.00000000  0.50000000  0.50000000  1.0
