# generated using pymatgen
data_Al13Ru4
_symmetry_space_group_name_H-M   C2/m
_cell_length_a   8.21824600
_cell_length_b   8.97068582
_cell_length_c   12.79902233
_cell_angle_alpha   105.73692195
_cell_angle_beta   90.00000000
_cell_angle_gamma   117.26207008
_symmetry_Int_Tables_number   12
_chemical_formula_structural   Al13Ru4
_chemical_formula_sum   'Al39 Ru12'
_cell_volume   798.77748543
_cell_formula_units_Z   3
loop_
 _symmetry_equiv_pos_site_id
 _symmetry_equiv_pos_as_xyz
  1  'x, y, z'
  2  '-x, -y, -z'
  3  'x-y, -y, -z'
  4  '-x+y, y, z'
loop_
 _atom_site_type_symbol
 _atom_site_label
 _atom_site_symmetry_multiplicity
 _atom_site_fract_x
 _atom_site_fract_y
 _atom_site_fract_z
 _atom_site_occupancy
  Al  Al0  4  0.03443900  0.62824400  0.89015100  1.0
  Al  Al1  4  0.04286700  0.64219400  0.66467400  1.0
  Al  Al2  4  0.14116300  0.72793500  0.48046100  1.0
  Al  Al3  4  0.15085500  0.73404800  0.10895000  1.0
  Al  Al4  4  0.25794700  0.98131700  0.32952400  1.0
  Al  Al5  2  0.06758700  0.13517400  0.17455800  1.0
  Al  Al6  2  0.07212800  0.14425600  0.58021200  1.0
  Al  Al7  2  0.08231800  0.16463600  0.78576000  1.0
  Al  Al8  2  0.23586300  0.47172600  0.53910200  1.0
  Al  Al9  2  0.23944200  0.47888400  0.95692600  1.0
  Al  Al10  2  0.25051000  0.00000000  0.00000000  1.0
  Al  Al11  2  0.30993700  0.61987400  0.77368200  1.0
  Al  Al12  2  0.32242400  0.64484800  0.28311600  1.0
  Al  Al13  2  0.48136900  0.96273800  0.82955600  1.0
  Al  Al14  1  0.50000000  0.00000000  0.50000000  1.0
  Ru  Ru15  4  0.02305700  0.63862300  0.27841400  1.0
  Ru  Ru16  2  0.08529700  0.17059400  0.38298400  1.0
  Ru  Ru17  2  0.09189900  0.18379800  0.98755000  1.0
  Ru  Ru18  2  0.40048700  0.80097400  0.98468900  1.0
  Ru  Ru19  2  0.40137300  0.80274600  0.62446100  1.0
