# generated using pymatgen
data_AlAu4
_symmetry_space_group_name_H-M   C2/m
_cell_length_a   2.96940589
_cell_length_b   2.96940589
_cell_length_c   10.91795077
_cell_angle_alpha   85.85175533
_cell_angle_beta   85.85175533
_cell_angle_gamma   70.51505966
_symmetry_Int_Tables_number   12
_chemical_formula_structural   AlAu4
_chemical_formula_sum   'Al1 Au4'
_cell_volume   90.39749436
_cell_formula_units_Z   1
loop_
 _symmetry_equiv_pos_site_id
 _symmetry_equiv_pos_as_xyz
  1  'x, y, z'
  2  '-x, -y, -z'
  3  '-y, -x, -z'
  4  'y, x, z'
loop_
 _atom_site_type_symbol
 _atom_site_label
 _atom_site_symmetry_multiplicity
 _atom_site_fract_x
 _atom_site_fract_y
 _atom_site_fract_z
 _atom_site_occupancy
  Al  Al0  1  0.00000000  0.00000000  0.00000000  1.0
  Au  Au1  2  0.19871000  0.19871000  0.39405100  1.0
  Au  Au2  2  0.38694400  0.38694400  0.82194700  1.0
