# generated using pymatgen
data_AlAu4
_symmetry_space_group_name_H-M   P2_13
_cell_length_a   7.05465000
_cell_length_b   7.05465000
_cell_length_c   7.05465000
_cell_angle_alpha   90.00000000
_cell_angle_beta   90.00000000
_cell_angle_gamma   90.00000000
_symmetry_Int_Tables_number   198
_chemical_formula_structural   AlAu4
_chemical_formula_sum   'Al4 Au16'
_cell_volume   351.09643229
_cell_formula_units_Z   4
loop_
 _symmetry_equiv_pos_site_id
 _symmetry_equiv_pos_as_xyz
  1  'x, y, z'
  2  '-x+1/2, -y, z+1/2'
  3  'x+1/2, -y+1/2, -z'
  4  '-x, y+1/2, -z+1/2'
  5  'z, x, y'
  6  'z+1/2, -x+1/2, -y'
  7  '-z, x+1/2, -y+1/2'
  8  '-z+1/2, -x, y+1/2'
  9  'y, z, x'
  10  '-y, z+1/2, -x+1/2'
  11  '-y+1/2, -z, x+1/2'
  12  'y+1/2, -z+1/2, -x'
loop_
 _atom_site_type_symbol
 _atom_site_label
 _atom_site_symmetry_multiplicity
 _atom_site_fract_x
 _atom_site_fract_y
 _atom_site_fract_z
 _atom_site_occupancy
  Al  Al0  4  0.06340700  0.06340700  0.06340700  1.0
  Au  Au1  12  0.05077900  0.88618900  0.71489100  1.0
  Au  Au2  4  0.18255600  0.81744400  0.31744400  1.0
