# generated using pymatgen
data_YbAlB4
_symmetry_space_group_name_H-M   Pbam
_cell_length_a   3.47593400
_cell_length_b   6.00323900
_cell_length_c   11.61712100
_cell_angle_alpha   90.00000000
_cell_angle_beta   90.00000000
_cell_angle_gamma   90.00000000
_symmetry_Int_Tables_number   55
_chemical_formula_structural   YbAlB4
_chemical_formula_sum   'Yb4 Al4 B16'
_cell_volume   242.41286714
_cell_formula_units_Z   4
loop_
 _symmetry_equiv_pos_site_id
 _symmetry_equiv_pos_as_xyz
  1  'x, y, z'
  2  '-x, -y, -z'
  3  'x, -y, -z'
  4  '-x, y, z'
  5  '-x, y+1/2, -z+1/2'
  6  'x, -y+1/2, z+1/2'
  7  '-x, -y+1/2, z+1/2'
  8  'x, y+1/2, -z+1/2'
loop_
 _atom_site_type_symbol
 _atom_site_label
 _atom_site_symmetry_multiplicity
 _atom_site_fract_x
 _atom_site_fract_y
 _atom_site_fract_z
 _atom_site_occupancy
  Yb  Yb0  4  0.00000000  0.12830200  0.15042200  1.0
  Al  Al1  4  0.00000000  0.13978900  0.40868900  1.0
  B  B2  4  0.50000000  0.02562500  0.69248500  1.0
  B  B3  4  0.50000000  0.11365900  0.54695000  1.0
  B  B4  4  0.50000000  0.13441800  0.96910500  1.0
  B  B5  4  0.50000000  0.21036300  0.81277500  1.0
