# generated using pymatgen
data_YbAlB4
_symmetry_space_group_name_H-M   Cmmm
_cell_length_a   3.47221200
_cell_length_b   5.99509825
_cell_length_c   5.99509825
_cell_angle_alpha   103.97212777
_cell_angle_beta   90.00000000
_cell_angle_gamma   90.00000000
_symmetry_Int_Tables_number   65
_chemical_formula_structural   YbAlB4
_chemical_formula_sum   'Yb2 Al2 B8'
_cell_volume   121.10318979
_cell_formula_units_Z   2
loop_
 _symmetry_equiv_pos_site_id
 _symmetry_equiv_pos_as_xyz
  1  'x, y, z'
  2  '-x, -y, -z'
  3  'x, -y, -z'
  4  '-x, y, z'
  5  '-x, z, y'
  6  'x, -z, -y'
  7  '-x, -z, -y'
  8  'x, z, y'
loop_
 _atom_site_type_symbol
 _atom_site_label
 _atom_site_symmetry_multiplicity
 _atom_site_fract_x
 _atom_site_fract_y
 _atom_site_fract_z
 _atom_site_occupancy
  Yb  Yb0  2  0.00000000  0.30066700  0.69933300  1.0
  Al  Al1  2  0.00000000  0.18318600  0.18318600  1.0
  B  B2  4  0.50000000  0.06331500  0.38111200  1.0
  B  B3  2  0.50000000  0.09191800  0.90808200  1.0
  B  B4  2  0.50000000  0.37846100  0.37846100  1.0
