# generated using pymatgen
data_CeAlRh
_symmetry_space_group_name_H-M   Pnma
_cell_length_a   4.21001600
_cell_length_b   7.12403800
_cell_length_c   15.87366700
_cell_angle_alpha   90.00000000
_cell_angle_beta   90.00000000
_cell_angle_gamma   90.00000000
_symmetry_Int_Tables_number   62
_chemical_formula_structural   CeAlRh
_chemical_formula_sum   'Ce8 Al8 Rh8'
_cell_volume   476.08800443
_cell_formula_units_Z   8
loop_
 _symmetry_equiv_pos_site_id
 _symmetry_equiv_pos_as_xyz
  1  'x, y, z'
  2  '-x, -y, -z'
  3  '-x, -y+1/2, z+1/2'
  4  'x, y+1/2, -z+1/2'
  5  '-x+1/2, y+1/2, -z+1/2'
  6  'x+1/2, -y+1/2, z+1/2'
  7  'x+1/2, -y, -z'
  8  '-x+1/2, y, z'
loop_
 _atom_site_type_symbol
 _atom_site_label
 _atom_site_symmetry_multiplicity
 _atom_site_fract_x
 _atom_site_fract_y
 _atom_site_fract_z
 _atom_site_occupancy
  Ce  Ce0  4  0.25000000  0.02724300  0.77954200  1.0
  Ce  Ce1  4  0.25000000  0.15323900  0.55898600  1.0
  Al  Al2  4  0.25000000  0.00539000  0.06205000  1.0
  Al  Al3  4  0.25000000  0.14440900  0.35004500  1.0
  Rh  Rh4  4  0.25000000  0.22053200  0.92678000  1.0
  Rh  Rh5  4  0.25000000  0.26432000  0.18192200  1.0
