# generated using pymatgen
data_ZrAlCu2
_symmetry_space_group_name_H-M   P4/mmm
_cell_length_a   3.05503500
_cell_length_b   3.05503500
_cell_length_c   6.57335700
_cell_angle_alpha   90.00000000
_cell_angle_beta   90.00000000
_cell_angle_gamma   90.00000000
_symmetry_Int_Tables_number   123
_chemical_formula_structural   ZrAlCu2
_chemical_formula_sum   'Zr1 Al1 Cu2'
_cell_volume   61.35071094
_cell_formula_units_Z   1
loop_
 _symmetry_equiv_pos_site_id
 _symmetry_equiv_pos_as_xyz
  1  'x, y, z'
  2  '-x, -y, -z+1/2'
  3  '-y, x, z'
  4  'y, -x, -z+1/2'
  5  '-x, -y, z'
  6  'x, y, -z+1/2'
  7  'y, -x, z'
  8  '-y, x, -z+1/2'
  9  'x, -y, -z+1/2'
  10  '-x, y, z'
  11  '-y, -x, -z+1/2'
  12  'y, x, z'
  13  '-x, y, -z+1/2'
  14  'x, -y, z'
  15  'y, x, -z+1/2'
  16  '-y, -x, z'
loop_
 _atom_site_type_symbol
 _atom_site_label
 _atom_site_symmetry_multiplicity
 _atom_site_fract_x
 _atom_site_fract_y
 _atom_site_fract_z
 _atom_site_occupancy
  Zr  Zr0  1  0.50000000  0.50000000  0.75000000  1.0
  Al  Al1  1  0.50000000  0.50000000  0.25000000  1.0
  Cu  Cu2  2  0.00000000  0.00000000  0.03858100  1.0
