# generated using pymatgen
data_AlGe
_symmetry_space_group_name_H-M   R-3c
_cell_length_a   7.72088186
_cell_length_b   7.72088186
_cell_length_c   7.72088186
_cell_angle_alpha   96.57153999
_cell_angle_beta   96.57153999
_cell_angle_gamma   96.57153099
_symmetry_Int_Tables_number   167
_chemical_formula_structural   AlGe
_chemical_formula_sum   'Al10 Ge10'
_cell_volume   450.42009996
_cell_formula_units_Z   10
loop_
 _symmetry_equiv_pos_site_id
 _symmetry_equiv_pos_as_xyz
  1  'x, y, z'
  2  '-x, -y, -z'
  3  'z, x, y'
  4  '-z, -x, -y'
  5  'y, z, x'
  6  '-y, -z, -x'
  7  '-z+1/2, -y+1/2, -x+1/2'
  8  'z+1/2, y+1/2, x+1/2'
  9  '-y+1/2, -x+1/2, -z+1/2'
  10  'y+1/2, x+1/2, z+1/2'
  11  '-x+1/2, -z+1/2, -y+1/2'
  12  'x+1/2, z+1/2, y+1/2'
loop_
 _atom_site_type_symbol
 _atom_site_label
 _atom_site_symmetry_multiplicity
 _atom_site_fract_x
 _atom_site_fract_y
 _atom_site_fract_z
 _atom_site_occupancy
  Al  Al0  12  0.01612900  0.33135000  0.92843900
  0.8333333333333334
  Ge  Ge1  6  0.10246900  0.75000000  0.39753100  1.0
  Ge  Ge2  4  0.14296900  0.14296900  0.14296900  1.0
