# generated using pymatgen
data_Y2AlGe3
_symmetry_space_group_name_H-M   Pnma
_cell_length_a   4.21587000
_cell_length_b   6.84005300
_cell_length_c   17.75491900
_cell_angle_alpha   90.00000000
_cell_angle_beta   90.00000000
_cell_angle_gamma   90.00000000
_symmetry_Int_Tables_number   62
_chemical_formula_structural   Y2AlGe3
_chemical_formula_sum   'Y8 Al4 Ge12'
_cell_volume   511.99459087
_cell_formula_units_Z   4
loop_
 _symmetry_equiv_pos_site_id
 _symmetry_equiv_pos_as_xyz
  1  'x, y, z'
  2  '-x, -y, -z'
  3  '-x, -y+1/2, z+1/2'
  4  'x, y+1/2, -z+1/2'
  5  '-x+1/2, y+1/2, -z+1/2'
  6  'x+1/2, -y+1/2, z+1/2'
  7  'x+1/2, -y, -z'
  8  '-x+1/2, y, z'
loop_
 _atom_site_type_symbol
 _atom_site_label
 _atom_site_symmetry_multiplicity
 _atom_site_fract_x
 _atom_site_fract_y
 _atom_site_fract_z
 _atom_site_occupancy
  Y  Y0  4  0.25000000  0.16733900  0.70394700  1.0
  Y  Y1  4  0.25000000  0.16903200  0.91461900  1.0
  Al  Al2  4  0.25000000  0.44995800  0.06422800  1.0
  Ge  Ge3  4  0.25000000  0.03657300  0.17297700  1.0
  Ge  Ge4  4  0.25000000  0.14486700  0.31195100  1.0
  Ge  Ge5  4  0.25000000  0.24994600  0.53433400  1.0
