# generated using pymatgen
data_Lu2Al
_symmetry_space_group_name_H-M   P4_2/mnm
_cell_length_a   7.44594700
_cell_length_b   8.05501200
_cell_length_c   8.05501200
_cell_angle_alpha   90.00000000
_cell_angle_beta   90.00000000
_cell_angle_gamma   90.00000000
_symmetry_Int_Tables_number   136
_chemical_formula_structural   Lu2Al
_chemical_formula_sum   'Lu12 Al6'
_cell_volume   483.11700480
_cell_formula_units_Z   6
loop_
 _symmetry_equiv_pos_site_id
 _symmetry_equiv_pos_as_xyz
  1  'x, y, z'
  2  '-x, -y, -z'
  3  'x+1/2, -z+1/2, y+1/2'
  4  '-x+1/2, z+1/2, -y+1/2'
  5  'x, -y, -z'
  6  '-x, y, z'
  7  'x+1/2, z+1/2, -y+1/2'
  8  '-x+1/2, -z+1/2, y+1/2'
  9  '-x+1/2, y+1/2, -z+1/2'
  10  'x+1/2, -y+1/2, z+1/2'
  11  '-x, -z, -y'
  12  'x, z, y'
  13  '-x+1/2, -y+1/2, z+1/2'
  14  'x+1/2, y+1/2, -z+1/2'
  15  '-x, z, y'
  16  'x, -z, -y'
loop_
 _atom_site_type_symbol
 _atom_site_label
 _atom_site_symmetry_multiplicity
 _atom_site_fract_x
 _atom_site_fract_y
 _atom_site_fract_z
 _atom_site_occupancy
  Lu  Lu0  4  0.00000000  0.20253700  0.79746300  1.0
  Lu  Lu1  4  0.00000000  0.34957200  0.34957200  1.0
  Lu  Lu2  4  0.25000000  0.00000000  0.50000000  1.0
  Al  Al3  8  0.19758800  0.11979300  0.11979300  0.75
