# generated using pymatgen
data_NdAlRh
_symmetry_space_group_name_H-M   Pnma
_cell_length_a   4.29635000
_cell_length_b   7.08864300
_cell_length_c   8.09310700
_cell_angle_alpha   90.00000000
_cell_angle_beta   90.00000000
_cell_angle_gamma   90.00000000
_symmetry_Int_Tables_number   62
_chemical_formula_structural   NdAlRh
_chemical_formula_sum   'Nd4 Al4 Rh4'
_cell_volume   246.47793164
_cell_formula_units_Z   4
loop_
 _symmetry_equiv_pos_site_id
 _symmetry_equiv_pos_as_xyz
  1  'x, y, z'
  2  '-x, -y, -z'
  3  '-x, -y+1/2, z+1/2'
  4  'x, y+1/2, -z+1/2'
  5  '-x+1/2, y+1/2, -z+1/2'
  6  'x+1/2, -y+1/2, z+1/2'
  7  'x+1/2, -y, -z'
  8  '-x+1/2, y, z'
loop_
 _atom_site_type_symbol
 _atom_site_label
 _atom_site_symmetry_multiplicity
 _atom_site_fract_x
 _atom_site_fract_y
 _atom_site_fract_z
 _atom_site_occupancy
  Nd  Nd0  4  0.25000000  0.03407600  0.31963200  1.0
  Al  Al1  4  0.25000000  0.13613300  0.93849500  1.0
  Rh  Rh2  4  0.25000000  0.27251900  0.61686700  1.0
