# generated using pymatgen
data_PrAlRh
_symmetry_space_group_name_H-M   Pnma
_cell_length_a   4.30828800
_cell_length_b   7.12539300
_cell_length_c   8.13313600
_cell_angle_alpha   90.00000000
_cell_angle_beta   90.00000000
_cell_angle_gamma   90.00000000
_symmetry_Int_Tables_number   62
_chemical_formula_structural   PrAlRh
_chemical_formula_sum   'Pr4 Al4 Rh4'
_cell_volume   249.67300282
_cell_formula_units_Z   4
loop_
 _symmetry_equiv_pos_site_id
 _symmetry_equiv_pos_as_xyz
  1  'x, y, z'
  2  '-x, -y, -z'
  3  '-x, -y+1/2, z+1/2'
  4  'x, y+1/2, -z+1/2'
  5  '-x+1/2, y+1/2, -z+1/2'
  6  'x+1/2, -y+1/2, z+1/2'
  7  'x+1/2, -y, -z'
  8  '-x+1/2, y, z'
loop_
 _atom_site_type_symbol
 _atom_site_label
 _atom_site_symmetry_multiplicity
 _atom_site_fract_x
 _atom_site_fract_y
 _atom_site_fract_z
 _atom_site_occupancy
  Pr  Pr0  4  0.25000000  0.03489800  0.31914700  1.0
  Al  Al1  4  0.25000000  0.13501000  0.93871400  1.0
  Rh  Rh2  4  0.25000000  0.27470800  0.61562200  1.0
