# generated using pymatgen
data_Y2Al
_symmetry_space_group_name_H-M   Pnma
_cell_length_a   5.11495600
_cell_length_b   6.60678000
_cell_length_c   9.49106200
_cell_angle_alpha   90.00000000
_cell_angle_beta   90.00000000
_cell_angle_gamma   90.00000000
_symmetry_Int_Tables_number   62
_chemical_formula_structural   Y2Al
_chemical_formula_sum   'Y8 Al4'
_cell_volume   320.73515021
_cell_formula_units_Z   4
loop_
 _symmetry_equiv_pos_site_id
 _symmetry_equiv_pos_as_xyz
  1  'x, y, z'
  2  '-x, -y, -z'
  3  '-x, -y+1/2, z+1/2'
  4  'x, y+1/2, -z+1/2'
  5  '-x+1/2, y+1/2, -z+1/2'
  6  'x+1/2, -y+1/2, z+1/2'
  7  'x+1/2, -y, -z'
  8  '-x+1/2, y, z'
loop_
 _atom_site_type_symbol
 _atom_site_label
 _atom_site_symmetry_multiplicity
 _atom_site_fract_x
 _atom_site_fract_y
 _atom_site_fract_z
 _atom_site_occupancy
  Y  Y0  4  0.25000000  0.31352900  0.57268800  1.0
  Y  Y1  4  0.25000000  0.47284500  0.20817000  1.0
  Al  Al2  4  0.25000000  0.29080200  0.89626600  1.0
