# generated using pymatgen
data_Ca12Al14O33
_symmetry_space_group_name_H-M   I-4
_cell_length_a   10.46641652
_cell_length_b   10.46641652
_cell_length_c   10.46641652
_cell_angle_alpha   109.93922701
_cell_angle_beta   109.23772550
_cell_angle_gamma   109.23772550
_symmetry_Int_Tables_number   82
_chemical_formula_structural   Ca12Al14O33
_chemical_formula_sum   'Ca12 Al14 O33'
_cell_volume   882.57251279
_cell_formula_units_Z   1
loop_
 _symmetry_equiv_pos_site_id
 _symmetry_equiv_pos_as_xyz
  1  'x, y, z'
  2  'y-z, -z, x-z'
  3  '-x, -x+z, -x+y'
  4  '-y+z, x-y, -y'
loop_
 _atom_site_type_symbol
 _atom_site_label
 _atom_site_symmetry_multiplicity
 _atom_site_fract_x
 _atom_site_fract_y
 _atom_site_fract_z
 _atom_site_occupancy
  Ca  Ca0  4  0.11110700  0.24284800  0.62383300  1.0
  Ca  Ca1  4  0.13537000  0.36930500  0.01075500  1.0
  Ca  Ca2  2  0.00000000  0.32250700  0.32250700  1.0
  Ca  Ca3  2  0.50000000  0.01273200  0.51273200  1.0
  Al  Al4  4  0.12422300  0.87486200  0.49869800  1.0
  Al  Al5  4  0.21384700  0.12483400  0.37217700  1.0
  Al  Al6  4  0.25162900  0.59062100  0.87759500  1.0
  Al  Al7  1  0.00000000  0.00000000  0.00000000  1.0
  Al  Al8  1  0.50000000  0.75000000  0.25000000  1.0
  O  O9  4  0.04622200  0.02007900  0.18671600  1.0
  O  O10  4  0.06717100  0.41824500  0.79204000  1.0
  O  O11  4  0.12436000  0.50256500  0.23856600  1.0
  O  O12  4  0.14074600  0.03508100  0.47095400  1.0
  O  O13  4  0.15644800  0.91482400  0.68710900  1.0
  O  O14  4  0.25094800  0.25609700  0.87118900  1.0
  O  O15  4  0.27106100  0.83236900  0.48760600  1.0
  O  O16  4  0.34518300  0.60039800  0.06028800  1.0
  O  O17  1  0.00000000  0.50000000  0.50000000  1.0
