# generated using pymatgen
data_NpAl2Pd5
_symmetry_space_group_name_H-M   I4/mmm
_cell_length_a   4.17784200
_cell_length_b   4.17784200
_cell_length_c   8.07613441
_cell_angle_alpha   104.99018478
_cell_angle_beta   104.99018479
_cell_angle_gamma   89.99999998
_symmetry_Int_Tables_number   139
_chemical_formula_structural   NpAl2Pd5
_chemical_formula_sum   'Np1 Al2 Pd5'
_cell_volume   131.19455596
_cell_formula_units_Z   1
loop_
 _symmetry_equiv_pos_site_id
 _symmetry_equiv_pos_as_xyz
  1  'x, y, z'
  2  '-x, -y, -z'
  3  '-y+z, x, z'
  4  'y-z, -x, -z'
  5  '-x+z, -y+z, z'
  6  'x-z, y-z, -z'
  7  'y, -x+z, z'
  8  '-y, x-z, -z'
  9  'x-z, -y, -z'
  10  '-x+z, y, z'
  11  '-y, -x, -z'
  12  'y, x, z'
  13  '-x, y-z, -z'
  14  'x, -y+z, z'
  15  'y-z, x-z, -z'
  16  '-y+z, -x+z, z'
loop_
 _atom_site_type_symbol
 _atom_site_label
 _atom_site_symmetry_multiplicity
 _atom_site_fract_x
 _atom_site_fract_y
 _atom_site_fract_z
 _atom_site_occupancy
  Np  Np0  1  0.00000000  0.00000000  0.00000000  1.0
  Al  Al1  2  0.25335800  0.25335800  0.50671600  1.0
  Pd  Pd2  4  0.14547700  0.64547700  0.29095400  1.0
  Pd  Pd3  1  0.50000000  0.50000000  0.00000000  1.0
