# generated using pymatgen
data_U1.5Al3Si3
_symmetry_space_group_name_H-M   Pmmm
_cell_length_a   4.16303700
_cell_length_b   4.27000300
_cell_length_c   8.01161500
_cell_angle_alpha   90.00000000
_cell_angle_beta   90.00000000
_cell_angle_gamma   90.00000000
_symmetry_Int_Tables_number   47
_chemical_formula_structural   U1.5Al3Si3
_chemical_formula_sum   'U1.5 Al3 Si3'
_cell_volume   142.41591417
_cell_formula_units_Z   1
loop_
 _symmetry_equiv_pos_site_id
 _symmetry_equiv_pos_as_xyz
  1  'x, y, z'
  2  '-x, -y, -z'
  3  '-x, -y, z'
  4  'x, y, -z'
  5  'x, -y, -z'
  6  '-x, y, z'
  7  '-x, y, -z'
  8  'x, -y, z'
loop_
 _atom_site_type_symbol
 _atom_site_label
 _atom_site_symmetry_multiplicity
 _atom_site_fract_x
 _atom_site_fract_y
 _atom_site_fract_z
 _atom_site_occupancy
  U  U0  2  0.00000000  0.00000000  0.23961400  0.75
  Al  Al1  2  0.50000000  0.50000000  0.24908300  1.0
  Al  Al2  1  0.00000000  0.50000000  0.50000000  1.0
  Si  Si3  1  0.00000000  0.50000000  0.00000000  1.0
  Si  Si4  1  0.50000000  0.00000000  0.00000000  1.0
  Si  Si5  1  0.50000000  0.00000000  0.50000000  1.0
