# generated using pymatgen
data_La0.3U0.7Al3Pd2
_symmetry_space_group_name_H-M   P6/mmm
_cell_length_a   4.23965200
_cell_length_b   5.38423000
_cell_length_c   5.38423090
_cell_angle_alpha   60.00000553
_cell_angle_beta   90.00000000
_cell_angle_gamma   90.00000000
_symmetry_Int_Tables_number   191
_chemical_formula_structural   La0.3U0.7Al3Pd2
_chemical_formula_sum   'La0.3 U0.7 Al3 Pd2'
_cell_volume   106.44080385
_cell_formula_units_Z   1
loop_
 _symmetry_equiv_pos_site_id
 _symmetry_equiv_pos_as_xyz
  1  'x, y, z'
  2  '-x, -y, -z'
  3  'x, y+z, -y'
  4  '-x, -y-z, y'
  5  'x, z, -y-z'
  6  '-x, -z, y+z'
  7  'x, -y, -z'
  8  '-x, y, z'
  9  'x, -y-z, y'
  10  '-x, y+z, -y'
  11  'x, -z, y+z'
  12  '-x, z, -y-z'
  13  '-x, z, y'
  14  'x, -z, -y'
  15  '-x, -y, y+z'
  16  'x, y, -y-z'
  17  '-x, -y-z, z'
  18  'x, y+z, -z'
  19  '-x, -z, -y'
  20  'x, z, y'
  21  '-x, y, -y-z'
  22  'x, -y, y+z'
  23  '-x, y+z, -z'
  24  'x, -y-z, z'
loop_
 _atom_site_type_symbol
 _atom_site_label
 _atom_site_symmetry_multiplicity
 _atom_site_fract_x
 _atom_site_fract_y
 _atom_site_fract_z
 _atom_site_occupancy
  U  U0  1  0.00000000  0.00000000  0.00000000  0.7
  La  La1  1  0.00000000  0.00000000  0.00000000  0.3
  Al  Al2  3  0.50000000  0.00000000  0.50000000  1.0
  Pd  Pd3  2  0.00000000  0.33333333  0.33333333  1.0
