# generated using pymatgen
data_Al3SiPd4
_symmetry_space_group_name_H-M   R3
_cell_length_a   4.88875173
_cell_length_b   4.88875173
_cell_length_c   4.88875161
_cell_angle_alpha   90.59436367
_cell_angle_beta   90.59436367
_cell_angle_gamma   90.59436316
_symmetry_Int_Tables_number   146
_chemical_formula_structural   Al3SiPd4
_chemical_formula_sum   'Al3 Si1 Pd4'
_cell_volume   116.82165132
_cell_formula_units_Z   1
loop_
 _symmetry_equiv_pos_site_id
 _symmetry_equiv_pos_as_xyz
  1  'x, y, z'
  2  'z, x, y'
  3  'y, z, x'
loop_
 _atom_site_type_symbol
 _atom_site_label
 _atom_site_symmetry_multiplicity
 _atom_site_fract_x
 _atom_site_fract_y
 _atom_site_fract_z
 _atom_site_occupancy
  Al  Al0  3  0.34990400  0.84263300  0.65768500  1.0
  Si  Si1  1  0.15629500  0.15629500  0.15629500  1.0
  Pd  Pd2  3  0.14855200  0.34456000  0.64380300  1.0
  Pd  Pd3  1  0.85656800  0.85656800  0.85656800  1.0
