# generated using pymatgen
data_Y6Ta4Al43
_symmetry_space_group_name_H-M   P6_3/mcm
_cell_length_a   11.14040200
_cell_length_b   11.14040274
_cell_length_c   17.76045400
_cell_angle_alpha   90.00000000
_cell_angle_beta   90.00000000
_cell_angle_gamma   119.99999779
_symmetry_Int_Tables_number   193
_chemical_formula_structural   Y6Ta4Al43
_chemical_formula_sum   'Y12 Ta8 Al86'
_cell_volume   1908.91441971
_cell_formula_units_Z   2
loop_
 _symmetry_equiv_pos_site_id
 _symmetry_equiv_pos_as_xyz
  1  'x, y, z'
  2  '-x, -y, -z'
  3  'x-y, x, z+1/2'
  4  '-x+y, -x, -z+1/2'
  5  '-y, x-y, z'
  6  'y, -x+y, -z'
  7  '-x, -y, z+1/2'
  8  'x, y, -z+1/2'
  9  '-x+y, -x, z'
  10  'x-y, x, -z'
  11  'y, -x+y, z+1/2'
  12  '-y, x-y, -z+1/2'
  13  '-y, -x, -z'
  14  'y, x, z'
  15  '-x, -x+y, -z+1/2'
  16  'x, x-y, z+1/2'
  17  '-x+y, y, -z'
  18  'x-y, -y, z'
  19  'y, x, -z+1/2'
  20  '-y, -x, z+1/2'
  21  'x, x-y, -z'
  22  '-x, -x+y, z'
  23  'x-y, -y, -z+1/2'
  24  '-x+y, y, z+1/2'
loop_
 _atom_site_type_symbol
 _atom_site_label
 _atom_site_symmetry_multiplicity
 _atom_site_fract_x
 _atom_site_fract_y
 _atom_site_fract_z
 _atom_site_occupancy
  Y  Y0  12  0.00000000  0.47026300  0.59642900  1.0
  Ta  Ta1  6  0.00000000  0.27418100  0.75000000  1.0
  Ta  Ta2  2  0.00000000  0.00000000  0.00000000  1.0
  Al  Al3  24  0.15722500  0.39451500  0.16365100  1.0
  Al  Al4  12  0.00000000  0.15902700  0.61516000  1.0
  Al  Al5  12  0.00000000  0.25586000  0.03021100  1.0
  Al  Al6  12  0.14968400  0.55440600  0.75000000  1.0
  Al  Al7  12  0.24710900  0.49421800  0.00000000  1.0
  Al  Al8  8  0.33333333  0.66666667  0.12645100  1.0
  Al  Al9  6  0.00000000  0.14689300  0.25000000  1.0
