# generated using pymatgen
data_Al4C3
_symmetry_space_group_name_H-M   P1
_cell_length_a   3.19240300
_cell_length_b   5.05639537
_cell_length_c   5.57203210
_cell_angle_alpha   65.75426144
_cell_angle_beta   86.63339504
_cell_angle_gamma   76.62185184
_symmetry_Int_Tables_number   1
_chemical_formula_structural   Al4C3
_chemical_formula_sum   'Al4 C3'
_cell_volume   79.71808654
_cell_formula_units_Z   1
loop_
 _symmetry_equiv_pos_site_id
 _symmetry_equiv_pos_as_xyz
  1  'x, y, z'
loop_
 _atom_site_type_symbol
 _atom_site_label
 _atom_site_symmetry_multiplicity
 _atom_site_fract_x
 _atom_site_fract_y
 _atom_site_fract_z
 _atom_site_occupancy
  Al  Al0  1  0.05344500  0.74812600  0.77327900  1.0
  Al  Al1  1  0.36520600  0.20539600  0.79238900  1.0
  Al  Al2  1  0.74171000  0.66104100  0.31498300  1.0
  Al  Al3  1  0.95974600  0.17435500  0.24011200  1.0
  C  C4  1  0.38189800  0.34380700  0.38487500  1.0
  C  C5  1  0.50293300  0.95321300  0.51773900  1.0
  C  C6  1  0.92348100  0.98199800  0.99741700  1.0
