# generated using pymatgen
data_LaAl4
_symmetry_space_group_name_H-M   Imm2
_cell_length_a   4.37521800
_cell_length_b   8.87780190
_cell_length_c   8.87780190
_cell_angle_alpha   77.70074272
_cell_angle_beta   75.73462567
_cell_angle_gamma   75.73462567
_symmetry_Int_Tables_number   44
_chemical_formula_structural   LaAl4
_chemical_formula_sum   'La3 Al12'
_cell_volume   319.61016729
_cell_formula_units_Z   3
loop_
 _symmetry_equiv_pos_site_id
 _symmetry_equiv_pos_as_xyz
  1  'x, y, z'
  2  '-x, -z, -y'
  3  '-x-y-z, y, z'
  4  'x+y+z, -z, -y'
loop_
 _atom_site_type_symbol
 _atom_site_label
 _atom_site_symmetry_multiplicity
 _atom_site_fract_x
 _atom_site_fract_y
 _atom_site_fract_z
 _atom_site_occupancy
  La  La0  2  0.33258500  0.66380200  0.67102800  1.0
  La  La1  1  0.00000000  0.00962600  0.99037400  1.0
  Al  Al2  2  0.16072500  0.59195400  0.08659700  1.0
  Al  Al3  2  0.17341600  0.07922700  0.57394100  1.0
  Al  Al4  2  0.32933900  0.29017500  0.05114700  1.0
  Al  Al5  2  0.33870100  0.05028700  0.27231000  1.0
  Al  Al6  1  0.00000000  0.37869200  0.62130800  1.0
  Al  Al7  1  0.00000000  0.60858600  0.39141400  1.0
  Al  Al8  1  0.50000000  0.24816500  0.75183500  1.0
  Al  Al9  1  0.50000000  0.74551000  0.25449000  1.0
