# generated using pymatgen
data_NpAl4
_symmetry_space_group_name_H-M   Imma
_cell_length_a   4.42214400
_cell_length_b   6.14396000
_cell_length_c   7.88104558
_cell_angle_alpha   112.94164831
_cell_angle_beta   106.29337145
_cell_angle_gamma   89.99999999
_symmetry_Int_Tables_number   74
_chemical_formula_structural   NpAl4
_chemical_formula_sum   'Np2 Al8'
_cell_volume   187.81356635
_cell_formula_units_Z   2
loop_
 _symmetry_equiv_pos_site_id
 _symmetry_equiv_pos_as_xyz
  1  'x, y, z'
  2  '-x, -y, -z'
  3  '-x+z, -y+z+1/2, z'
  4  'x-z, y-z+1/2, -z'
  5  'x-z, -y, -z'
  6  '-x+z, y, z'
  7  '-x, y-z+1/2, -z'
  8  'x, -y+z+1/2, z'
loop_
 _atom_site_type_symbol
 _atom_site_label
 _atom_site_symmetry_multiplicity
 _atom_site_fract_x
 _atom_site_fract_y
 _atom_site_fract_z
 _atom_site_occupancy
  Np  Np0  2  0.10887500  0.85887500  0.21775000  1.0
  Al  Al1  4  0.30103700  0.32069500  0.60207400  1.0
  Al  Al2  2  0.11345300  0.36345300  0.22690600  1.0
  Al  Al3  2  0.50000000  0.00000000  0.00000000  1.0
