# generated using pymatgen
data_Al5Mo
_symmetry_space_group_name_H-M   P6_322
_cell_length_a   4.91853200
_cell_length_b   4.91853316
_cell_length_c   8.87569800
_cell_angle_alpha   90.00000000
_cell_angle_beta   90.00000000
_cell_angle_gamma   119.99999220
_symmetry_Int_Tables_number   182
_chemical_formula_structural   Al5Mo
_chemical_formula_sum   'Al10 Mo2'
_cell_volume   185.95347023
_cell_formula_units_Z   2
loop_
 _symmetry_equiv_pos_site_id
 _symmetry_equiv_pos_as_xyz
  1  'x, y, z'
  2  'x-y, x, z+1/2'
  3  '-y, x-y, z'
  4  '-x, -y, z+1/2'
  5  '-x+y, -x, z'
  6  'y, -x+y, z+1/2'
  7  '-y, -x, -z+1/2'
  8  '-x, -x+y, -z'
  9  '-x+y, y, -z+1/2'
  10  'y, x, -z'
  11  'x, x-y, -z+1/2'
  12  'x-y, -y, -z'
loop_
 _atom_site_type_symbol
 _atom_site_label
 _atom_site_symmetry_multiplicity
 _atom_site_fract_x
 _atom_site_fract_y
 _atom_site_fract_z
 _atom_site_occupancy
  Al  Al0  6  0.00000000  0.33844000  0.50000000  1.0
  Al  Al1  2  0.00000000  0.00000000  0.25000000  1.0
  Al  Al2  2  0.33333333  0.66666667  0.75000000  1.0
  Mo  Mo3  2  0.33333333  0.66666667  0.25000000  1.0
