# generated using pymatgen
data_Al5Mo
_symmetry_space_group_name_H-M   P321
_cell_length_a   4.94101600
_cell_length_b   4.94101567
_cell_length_c   43.98126600
_cell_angle_alpha   90.00000000
_cell_angle_beta   90.00000000
_cell_angle_gamma   120.00000219
_symmetry_Int_Tables_number   150
_chemical_formula_structural   Al5Mo
_chemical_formula_sum   'Al50 Mo10'
_cell_volume   929.88842105
_cell_formula_units_Z   10
loop_
 _symmetry_equiv_pos_site_id
 _symmetry_equiv_pos_as_xyz
  1  'x, y, z'
  2  '-y, x-y, z'
  3  '-x+y, -x, z'
  4  'y, x, -z'
  5  'x-y, -y, -z'
  6  '-x, -x+y, -z'
loop_
 _atom_site_type_symbol
 _atom_site_label
 _atom_site_symmetry_multiplicity
 _atom_site_fract_x
 _atom_site_fract_y
 _atom_site_fract_z
 _atom_site_occupancy
  Al  Al0  6  0.00832300  0.67487600  0.20000300  1.0
  Al  Al1  6  0.00864600  0.33136100  0.30012700  1.0
  Al  Al2  6  0.01005600  0.33456600  0.09988600  1.0
  Al  Al3  6  0.01116000  0.67684800  0.59984700  1.0
  Al  Al4  3  0.00000000  0.34439000  0.50000000  1.0
  Al  Al5  3  0.00000000  0.65762600  0.00000000  1.0
  Al  Al6  2  0.00000000  0.00000000  0.04849700  1.0
  Al  Al7  2  0.00000000  0.00000000  0.24992000  1.0
  Al  Al8  2  0.00000000  0.00000000  0.45162800  1.0
  Al  Al9  2  0.33333333  0.66666667  0.15013100  1.0
  Al  Al10  2  0.33333333  0.66666667  0.35145800  1.0
  Al  Al11  2  0.33333333  0.66666667  0.44836800  1.0
  Al  Al12  2  0.33333333  0.66666667  0.65175700  1.0
  Al  Al13  2  0.33333333  0.66666667  0.75023200  1.0
  Al  Al14  2  0.33333333  0.66666667  0.84985600  1.0
  Al  Al15  2  0.33333333  0.66666667  0.94819900  1.0
  Mo  Mo16  2  0.00000000  0.00000000  0.14934700  1.0
  Mo  Mo17  2  0.00000000  0.00000000  0.35098600  1.0
  Mo  Mo18  2  0.33333333  0.66666667  0.04929200  1.0
  Mo  Mo19  2  0.33333333  0.66666667  0.25078200  1.0
  Mo  Mo20  2  0.33333333  0.66666667  0.54975700  1.0
