# generated using pymatgen
data_Al5Mo
_symmetry_space_group_name_H-M   R-3c
_cell_length_a   4.95712993
_cell_length_b   4.95712993
_cell_length_c   9.19976549
_cell_angle_alpha   74.37047882
_cell_angle_beta   74.37047882
_cell_angle_gamma   60.00000084
_symmetry_Int_Tables_number   167
_chemical_formula_structural   Al5Mo
_chemical_formula_sum   'Al10 Mo2'
_cell_volume   186.06503433
_cell_formula_units_Z   2
loop_
 _symmetry_equiv_pos_site_id
 _symmetry_equiv_pos_as_xyz
  1  'x, y, z'
  2  '-x, -y, -z'
  3  '-x-y-z, x, z'
  4  'x+y+z, -x, -z'
  5  'y, -x-y-z, z'
  6  '-y, x+y+z, -z'
  7  '-x+1/2, x+y+z+1/2, -z+1/2'
  8  'x+1/2, -x-y-z+1/2, z+1/2'
  9  'x+y+z+1/2, -y+1/2, -z+1/2'
  10  '-x-y-z+1/2, y+1/2, z+1/2'
  11  '-y+1/2, -x+1/2, -z+1/2'
  12  'y+1/2, x+1/2, z+1/2'
loop_
 _atom_site_type_symbol
 _atom_site_label
 _atom_site_symmetry_multiplicity
 _atom_site_fract_x
 _atom_site_fract_y
 _atom_site_fract_z
 _atom_site_occupancy
  Al  Al0  6  0.09616100  0.40383900  0.75000000  1.0
  Al  Al1  4  0.16917700  0.16917700  0.49246900  1.0
  Mo  Mo2  2  0.00000000  0.00000000  0.00000000  1.0
