# generated using pymatgen
data_Y2Al5
_symmetry_space_group_name_H-M   P6_3/mmc
_cell_length_a   4.28480600
_cell_length_b   7.97205200
_cell_length_c   7.97205239
_cell_angle_alpha   119.99999839
_cell_angle_beta   90.00000000
_cell_angle_gamma   90.00000000
_symmetry_Int_Tables_number   194
_chemical_formula_structural   Y2Al5
_chemical_formula_sum   'Y2 Al5'
_cell_volume   235.83163892
_cell_formula_units_Z   1
loop_
 _symmetry_equiv_pos_site_id
 _symmetry_equiv_pos_as_xyz
  1  'x, y, z'
  2  '-x, -y, -z'
  3  'x+1/2, y-z, y'
  4  '-x+1/2, -y+z, -y'
  5  'x, -z, y-z'
  6  '-x, z, -y+z'
  7  'x+1/2, -y, -z'
  8  '-x+1/2, y, z'
  9  'x, -y+z, -y'
  10  '-x, y-z, y'
  11  'x+1/2, z, -y+z'
  12  '-x+1/2, -z, y-z'
  13  '-x+1/2, y, y-z'
  14  'x+1/2, -y, -y+z'
  15  '-x, y-z, -z'
  16  'x, -y+z, z'
  17  '-x+1/2, -z, -y'
  18  'x+1/2, z, y'
  19  '-x, -y, -y+z'
  20  'x, y, y-z'
  21  '-x+1/2, -y+z, z'
  22  'x+1/2, y-z, -z'
  23  '-x, z, y'
  24  'x, -z, -y'
loop_
 _atom_site_type_symbol
 _atom_site_label
 _atom_site_symmetry_multiplicity
 _atom_site_fract_x
 _atom_site_fract_y
 _atom_site_fract_z
 _atom_site_occupancy
  Y  Y0  2  0.25000000  0.33333333  0.66666667  1.0
  Al  Al1  6  0.25000000  0.11994600  0.23989200  0.8333333333333334
