# generated using pymatgen
data_Al6Re
_symmetry_space_group_name_H-M   Cmcm
_cell_length_a   5.05882284
_cell_length_b   5.05882284
_cell_length_c   9.03369300
_cell_angle_alpha   90.00000000
_cell_angle_beta   90.00000000
_cell_angle_gamma   98.11953343
_symmetry_Int_Tables_number   63
_chemical_formula_structural   Al6Re
_chemical_formula_sum   'Al12 Re2'
_cell_volume   228.86993357
_cell_formula_units_Z   2
loop_
 _symmetry_equiv_pos_site_id
 _symmetry_equiv_pos_as_xyz
  1  'x, y, z'
  2  '-x, -y, -z'
  3  '-x, -y, z+1/2'
  4  'x, y, -z+1/2'
  5  '-y, -x, -z'
  6  'y, x, z'
  7  'y, x, -z+1/2'
  8  '-y, -x, z+1/2'
loop_
 _atom_site_type_symbol
 _atom_site_label
 _atom_site_symmetry_multiplicity
 _atom_site_fract_x
 _atom_site_fract_y
 _atom_site_fract_z
 _atom_site_occupancy
  Al  Al0  4  0.03105500  0.39012500  0.25000000  1.0
  Al  Al1  4  0.12900300  0.12900300  0.60123000  1.0
  Al  Al2  4  0.32519500  0.67480500  0.00000000  1.0
  Re  Re3  2  0.45384200  0.45384200  0.75000000  1.0
