# generated using pymatgen
data_Ba1Ni2As1.846P0.154
_symmetry_space_group_name_H-M   I4/mmm
_cell_length_a   4.15655400
_cell_length_b   4.15655400
_cell_length_c   6.57789079
_cell_angle_alpha   108.41810422
_cell_angle_beta   108.41810423
_cell_angle_gamma   89.99999999
_symmetry_Int_Tables_number   139
_chemical_formula_structural   Ba1Ni2As1.846P0.154
_chemical_formula_sum   'Ba1 Ni2 As1.846 P0.154'
_cell_volume   101.67032401
_cell_formula_units_Z   1
loop_
 _symmetry_equiv_pos_site_id
 _symmetry_equiv_pos_as_xyz
  1  'x, y, z'
  2  '-x, -y, -z'
  3  '-y+z, x, z'
  4  'y-z, -x, -z'
  5  '-x+z, -y+z, z'
  6  'x-z, y-z, -z'
  7  'y, -x+z, z'
  8  '-y, x-z, -z'
  9  'x-z, -y, -z'
  10  '-x+z, y, z'
  11  '-y, -x, -z'
  12  'y, x, z'
  13  '-x, y-z, -z'
  14  'x, -y+z, z'
  15  'y-z, x-z, -z'
  16  '-y+z, -x+z, z'
loop_
 _atom_site_type_symbol
 _atom_site_label
 _atom_site_symmetry_multiplicity
 _atom_site_fract_x
 _atom_site_fract_y
 _atom_site_fract_z
 _atom_site_occupancy
  Ba  Ba0  1  0.00000000  0.00000000  0.00000000  1.0
  Ni  Ni1  2  0.25000000  0.75000000  0.50000000  1.0
  As  As2  2  0.34636700  0.34636700  0.69273400  0.923
  P  P3  2  0.34636700  0.34636700  0.69273400  0.077
