# generated using pymatgen
data_Sr1Fe2As1.2P0.8
_symmetry_space_group_name_H-M   I4mm
_cell_length_a   3.88105200
_cell_length_b   3.88105200
_cell_length_c   6.42551137
_cell_angle_alpha   107.57796916
_cell_angle_beta   107.57796915
_cell_angle_gamma   90.00000000
_symmetry_Int_Tables_number   107
_chemical_formula_structural   Sr1Fe2As1.2P0.8
_chemical_formula_sum   'Sr1 Fe2 As1.2 P0.8'
_cell_volume   87.51325945
_cell_formula_units_Z   1
loop_
 _symmetry_equiv_pos_site_id
 _symmetry_equiv_pos_as_xyz
  1  'x, y, z'
  2  '-y+z, x, z'
  3  '-x+z, -y+z, z'
  4  'y, -x+z, z'
  5  '-x+z, y, z'
  6  'y, x, z'
  7  'x, -y+z, z'
  8  '-y+z, -x+z, z'
loop_
 _atom_site_type_symbol
 _atom_site_label
 _atom_site_symmetry_multiplicity
 _atom_site_fract_x
 _atom_site_fract_y
 _atom_site_fract_z
 _atom_site_occupancy
  Sr  Sr0  1  0.00379300  0.00379300  0.00758600  1.0
  Fe  Fe1  2  0.24359400  0.74359400  0.48718900  1.0
  As  As2  1  0.35374900  0.35374900  0.70749800  1.0
  P  P3  1  0.65526900  0.65526900  0.31053800  0.8
  As  As4  1  0.65526900  0.65526900  0.31053800  0.2
