# generated using pymatgen
data_Ba1Ni2As1.846P0.154
_symmetry_space_group_name_H-M   C2/m
_cell_length_a   4.17352200
_cell_length_b   4.18833608
_cell_length_c   6.47823184
_cell_angle_alpha   108.26206095
_cell_angle_beta   108.79111630
_cell_angle_gamma   90.00000000
_symmetry_Int_Tables_number   12
_chemical_formula_structural   Ba1Ni2As1.846P0.154
_chemical_formula_sum   'Ba1 Ni2 As1.846 P0.154'
_cell_volume   101.16114834
_cell_formula_units_Z   1
loop_
 _symmetry_equiv_pos_site_id
 _symmetry_equiv_pos_as_xyz
  1  'x, y, z'
  2  '-x, -y, -z'
  3  'x-z, -y, -z'
  4  '-x+z, y, z'
loop_
 _atom_site_type_symbol
 _atom_site_label
 _atom_site_symmetry_multiplicity
 _atom_site_fract_x
 _atom_site_fract_y
 _atom_site_fract_z
 _atom_site_occupancy
  Ba  Ba0  1  0.00000000  0.00000000  0.00000000  1.0
  Ni  Ni1  2  0.25025100  0.77889500  0.50050200  1.0
  As  As2  2  0.34517800  0.36604500  0.69035600  0.923
  P  P3  2  0.34517800  0.36604500  0.69035600  0.077
