# generated using pymatgen
data_Na2Fe1.958Co0.042As2
_symmetry_space_group_name_H-M   Cmcm
_cell_length_a   3.84791200
_cell_length_b   3.97291800
_cell_length_c   7.50001057
_cell_angle_alpha   90.00000000
_cell_angle_beta   104.86409215
_cell_angle_gamma   90.00000000
_symmetry_Int_Tables_number   63
_chemical_formula_structural   Na2Fe1.958Co0.042As2
_chemical_formula_sum   'Na2 Fe1.958 Co0.042 As2'
_cell_volume   110.81922506
_cell_formula_units_Z   1
loop_
 _symmetry_equiv_pos_site_id
 _symmetry_equiv_pos_as_xyz
  1  'x, y, z'
  2  '-x, -y, -z'
  3  '-x, y+1/2, -z'
  4  'x, -y+1/2, z'
  5  'x-z, -y, -z'
  6  '-x+z, y, z'
  7  '-x+z, -y+1/2, z'
  8  'x-z, y+1/2, -z'
loop_
 _atom_site_type_symbol
 _atom_site_label
 _atom_site_symmetry_multiplicity
 _atom_site_fract_x
 _atom_site_fract_y
 _atom_site_fract_z
 _atom_site_occupancy
  Na  Na0  2  0.08668800  0.75000000  0.17337600  1.0
  Fe  Fe1  2  0.25083800  0.25000000  0.50167600  0.979
  Co  Co2  2  0.25083800  0.25000000  0.50167600  0.021
  As  As3  2  0.33826300  0.75000000  0.67652600  1.0
