# generated using pymatgen
data_Cu10As3.33333333
_symmetry_space_group_name_H-M   Ibam
_cell_length_a   5.56577200
_cell_length_b   6.00252800
_cell_length_c   7.08365388
_cell_angle_alpha   115.06768965
_cell_angle_beta   113.13258968
_cell_angle_gamma   89.99999999
_symmetry_Int_Tables_number   72
_chemical_formula_structural   Cu10As3.33333333
_chemical_formula_sum   'Cu10 As3.33333333'
_cell_volume   193.15348113
_cell_formula_units_Z   1
loop_
 _symmetry_equiv_pos_site_id
 _symmetry_equiv_pos_as_xyz
  1  'x, y, z'
  2  '-x, -y, -z'
  3  'x-z, -y, -z'
  4  '-x+z, y, z'
  5  '-x+1/2, y-z, -z'
  6  'x+1/2, -y+z, z'
  7  '-x+z+1/2, -y+z, z'
  8  'x-z+1/2, y-z, -z'
loop_
 _atom_site_type_symbol
 _atom_site_label
 _atom_site_symmetry_multiplicity
 _atom_site_fract_x
 _atom_site_fract_y
 _atom_site_fract_z
 _atom_site_occupancy
  Cu  Cu0  4  0.01879000  0.26879000  0.53758000  1.0
  Cu  Cu1  4  0.10354400  0.29414300  0.20708700  1.0
  Cu  Cu2  2  0.25000000  0.50000000  0.00000000  1.0
  As  As3  4  0.11662400  0.89353700  0.23324800  0.833333333325
