# generated using pymatgen
data_Ca2Fe1.6Ni0.4As2F2
_symmetry_space_group_name_H-M   Pmmn
_cell_length_a   3.93333600
_cell_length_b   3.98127600
_cell_length_c   9.01891800
_cell_angle_alpha   90.00000000
_cell_angle_beta   90.00000000
_cell_angle_gamma   90.00000000
_symmetry_Int_Tables_number   59
_chemical_formula_structural   Ca2Fe1.6Ni0.4As2F2
_chemical_formula_sum   'Ca2 Fe1.6 Ni0.4 As2 F2'
_cell_volume   141.23351608
_cell_formula_units_Z   1
loop_
 _symmetry_equiv_pos_site_id
 _symmetry_equiv_pos_as_xyz
  1  'x, y, z'
  2  '-x, -y, z'
  3  'x+1/2, -y+1/2, -z'
  4  '-x+1/2, y+1/2, -z'
  5  '-x+1/2, -y+1/2, -z'
  6  'x+1/2, y+1/2, -z'
  7  '-x, y, z'
  8  'x, -y, z'
loop_
 _atom_site_type_symbol
 _atom_site_label
 _atom_site_symmetry_multiplicity
 _atom_site_fract_x
 _atom_site_fract_y
 _atom_site_fract_z
 _atom_site_occupancy
  Ca  Ca0  2  0.00000000  0.50000000  0.85590500  1.0
  Fe  Fe1  2  0.00000000  0.00000000  0.50814300  0.8
  Ni  Ni2  2  0.00000000  0.00000000  0.50814300  0.2
  As  As3  2  0.00000000  0.50000000  0.31910000  1.0
  F  F4  2  0.00000000  0.00000000  0.99945100  1.0
