# generated using pymatgen
data_Li1Fe0.98Cu0.02As1
_symmetry_space_group_name_H-M   I4mm
_cell_length_a   3.01983800
_cell_length_b   3.01983800
_cell_length_c   4.53753197
_cell_angle_alpha   109.43651420
_cell_angle_beta   109.43651421
_cell_angle_gamma   89.99999999
_symmetry_Int_Tables_number   107
_chemical_formula_structural   Li1Fe0.98Cu0.02As1
_chemical_formula_sum   'Li1 Fe0.98 Cu0.02 As1'
_cell_volume   36.51128216
_cell_formula_units_Z   1
loop_
 _symmetry_equiv_pos_site_id
 _symmetry_equiv_pos_as_xyz
  1  'x, y, z'
  2  '-y+z, x, z'
  3  '-x+z, -y+z, z'
  4  'y, -x+z, z'
  5  '-x+z, y, z'
  6  'y, x, z'
  7  'x, -y+z, z'
  8  '-y+z, -x+z, z'
loop_
 _atom_site_type_symbol
 _atom_site_label
 _atom_site_symmetry_multiplicity
 _atom_site_fract_x
 _atom_site_fract_y
 _atom_site_fract_z
 _atom_site_occupancy
  Li  Li0  1  0.53458600  0.53458600  0.06917200  1.0
  Fe  Fe1  1  0.21249200  0.21249200  0.42498400  0.98
  Cu  Cu2  1  0.21249200  0.21249200  0.42498400  0.02
  As  As3  1  0.85862100  0.85862100  0.71724200  1.0
