# generated using pymatgen
data_Cu3As
_symmetry_space_group_name_H-M   P-3c1
_cell_length_a   7.19066200
_cell_length_b   7.19066203
_cell_length_c   7.40477200
_cell_angle_alpha   90.00000000
_cell_angle_beta   90.00000000
_cell_angle_gamma   119.99999985
_symmetry_Int_Tables_number   165
_chemical_formula_structural   Cu3As
_chemical_formula_sum   'Cu18 As6'
_cell_volume   331.57369955
_cell_formula_units_Z   6
loop_
 _symmetry_equiv_pos_site_id
 _symmetry_equiv_pos_as_xyz
  1  'x, y, z'
  2  '-x, -y, -z'
  3  '-y, x-y, z'
  4  'y, -x+y, -z'
  5  '-x+y, -x, z'
  6  'x-y, x, -z'
  7  'y, x, -z+1/2'
  8  '-y, -x, z+1/2'
  9  'x-y, -y, -z+1/2'
  10  '-x+y, y, z+1/2'
  11  '-x, -x+y, -z+1/2'
  12  'x, x-y, z+1/2'
loop_
 _atom_site_type_symbol
 _atom_site_label
 _atom_site_symmetry_multiplicity
 _atom_site_fract_x
 _atom_site_fract_y
 _atom_site_fract_z
 _atom_site_occupancy
  Cu  Cu0  12  0.05402700  0.37005400  0.91908000  1.0
  Cu  Cu1  4  0.33333333  0.66666667  0.15355400  1.0
  Cu  Cu2  2  0.00000000  0.00000000  0.25000000  1.0
  As  As3  6  0.00000000  0.33673000  0.25000000  1.0
