# generated using pymatgen
data_CoAs
_symmetry_space_group_name_H-M   Pnma
_cell_length_a   3.46896200
_cell_length_b   5.31571800
_cell_length_c   5.82498600
_cell_angle_alpha   90.00000000
_cell_angle_beta   90.00000000
_cell_angle_gamma   90.00000000
_symmetry_Int_Tables_number   62
_chemical_formula_structural   CoAs
_chemical_formula_sum   'Co4 As4'
_cell_volume   107.41288015
_cell_formula_units_Z   4
loop_
 _symmetry_equiv_pos_site_id
 _symmetry_equiv_pos_as_xyz
  1  'x, y, z'
  2  '-x, -y, -z'
  3  '-x, -y+1/2, z+1/2'
  4  'x, y+1/2, -z+1/2'
  5  '-x+1/2, y+1/2, -z+1/2'
  6  'x+1/2, -y+1/2, z+1/2'
  7  'x+1/2, -y, -z'
  8  '-x+1/2, y, z'
loop_
 _atom_site_type_symbol
 _atom_site_label
 _atom_site_symmetry_multiplicity
 _atom_site_fract_x
 _atom_site_fract_y
 _atom_site_fract_z
 _atom_site_occupancy
  Co  Co0  4  0.25000000  0.00094300  0.80238100  1.0
  As  As1  4  0.25000000  0.20017700  0.41152700  1.0
