# generated using pymatgen
data_La2Mn0.2Fe1.8As2O2
_symmetry_space_group_name_H-M   P2_1/m
_cell_length_a   4.12067916
_cell_length_b   4.14459300
_cell_length_c   9.20857818
_cell_angle_alpha   89.99979903
_cell_angle_beta   89.59548925
_cell_angle_gamma   90.00027006
_symmetry_Int_Tables_number   11
_chemical_formula_structural   La2Mn0.2Fe1.8As2O2
_chemical_formula_sum   'La2 Mn0.2 Fe1.8 As2 O2'
_cell_volume   157.26513293
_cell_formula_units_Z   1
loop_
 _symmetry_equiv_pos_site_id
 _symmetry_equiv_pos_as_xyz
  1  'x, y, z'
  2  '-x, -y, -z'
  3  '-x, y+1/2, -z'
  4  'x, -y+1/2, z'
loop_
 _atom_site_type_symbol
 _atom_site_label
 _atom_site_symmetry_multiplicity
 _atom_site_fract_x
 _atom_site_fract_y
 _atom_site_fract_z
 _atom_site_occupancy
  La  La0  2  0.25148250  0.74999750  0.86953950  1.0
  Fe  Fe1  2  0.25412850  0.25002100  0.50134550  0.9
  Mn  Mn2  2  0.25412850  0.25002100  0.50134550  0.1
  As  As3  2  0.24071400  0.75003600  0.32821200  1.0
  O  O4  2  0.25027550  0.24998950  0.99973650  1.0
