# generated using pymatgen
data_La1Y1Fe2As2O1.7F0.3
_symmetry_space_group_name_H-M   P4mm
_cell_length_a   4.11392300
_cell_length_b   4.11392300
_cell_length_c   8.98068700
_cell_angle_alpha   90.00000000
_cell_angle_beta   90.00000000
_cell_angle_gamma   90.00000000
_symmetry_Int_Tables_number   99
_chemical_formula_structural   La1Y1Fe2As2O1.7F0.3
_chemical_formula_sum   'La1 Y1 Fe2 As2 O1.7 F0.3'
_cell_volume   151.99240184
_cell_formula_units_Z   1
loop_
 _symmetry_equiv_pos_site_id
 _symmetry_equiv_pos_as_xyz
  1  'x, y, z'
  2  '-y, x, z'
  3  '-x, -y, z'
  4  'y, -x, z'
  5  '-x, y, z'
  6  'y, x, z'
  7  'x, -y, z'
  8  '-y, -x, z'
loop_
 _atom_site_type_symbol
 _atom_site_label
 _atom_site_symmetry_multiplicity
 _atom_site_fract_x
 _atom_site_fract_y
 _atom_site_fract_z
 _atom_site_occupancy
  La  La0  1  0.00000000  0.00000000  0.12928800  1.0
  Y  Y1  1  0.50000000  0.50000000  0.87953300  1.0
  Fe  Fe2  2  0.00000000  0.50000000  0.50170300  1.0
  As  As3  1  0.00000000  0.00000000  0.67792900  1.0
  As  As4  1  0.50000000  0.50000000  0.32517600  1.0
  O  O5  2  0.00000000  0.50000000  0.99233400  0.85
  F  F6  2  0.00000000  0.50000000  0.99233400  0.15
