# generated using pymatgen
data_Nd5Fe5As5O4F
_symmetry_space_group_name_H-M   P-1
_cell_length_a   9.07623500
_cell_length_b   9.09192927
_cell_length_c   9.97782917
_cell_angle_alpha   111.34492806
_cell_angle_beta   100.50686254
_cell_angle_gamma   90.12962872
_symmetry_Int_Tables_number   2
_chemical_formula_structural   Nd5Fe5As5O4F
_chemical_formula_sum   'Nd10 Fe10 As10 O8 F2'
_cell_volume   751.91757108
_cell_formula_units_Z   2
loop_
 _symmetry_equiv_pos_site_id
 _symmetry_equiv_pos_as_xyz
  1  'x, y, z'
  2  '-x, -y, -z'
loop_
 _atom_site_type_symbol
 _atom_site_label
 _atom_site_symmetry_multiplicity
 _atom_site_fract_x
 _atom_site_fract_y
 _atom_site_fract_z
 _atom_site_occupancy
  Nd  Nd0  2  0.06860500  0.41191700  0.13715400  1.0
  Nd  Nd1  2  0.11496400  0.98474600  0.86218200  1.0
  Nd  Nd2  2  0.27757000  0.80163000  0.13077000  1.0
  Nd  Nd3  2  0.32960700  0.40339600  0.86019900  1.0
  Nd  Nd4  2  0.48740000  0.19804600  0.13882900  1.0
  Fe  Fe5  2  0.05436300  0.34973800  0.50098400  1.0
  Fe  Fe6  2  0.14893900  0.05148200  0.49655300  1.0
  Fe  Fe7  2  0.24848400  0.74757300  0.49765100  1.0
  Fe  Fe8  2  0.35173700  0.44921500  0.50129500  1.0
  Fe  Fe9  2  0.44811200  0.14996000  0.49786700  1.0
  As  As10  2  0.01179100  0.77756700  0.31687100  1.0
  As  As11  2  0.18492900  0.62439500  0.68228000  1.0
  As  As12  2  0.21390300  0.17937900  0.31324200  1.0
  As  As13  2  0.38301900  0.02269700  0.68029900  1.0
  As  As14  2  0.41123100  0.57489200  0.31625000  1.0
  O  O15  2  0.04557700  0.84600400  0.00027100  1.0
  O  O16  2  0.15403500  0.54400000  0.99823400  1.0
  O  O17  2  0.34650200  0.95442200  0.99929100  1.0
  O  O18  2  0.45545500  0.65319400  0.99792400  1.0
  F  F19  2  0.25005800  0.24872700  0.99816000  1.0
