# generated using pymatgen
data_LiFeAs
_symmetry_space_group_name_H-M   P-3m1
_cell_length_a   4.07089601
_cell_length_b   4.07089570
_cell_length_c   10.36541400
_cell_angle_alpha   90.00000000
_cell_angle_beta   90.00000000
_cell_angle_gamma   120.00000248
_symmetry_Int_Tables_number   164
_chemical_formula_structural   LiFeAs
_chemical_formula_sum   'Li4 Fe4 As4'
_cell_volume   148.76379804
_cell_formula_units_Z   4
loop_
 _symmetry_equiv_pos_site_id
 _symmetry_equiv_pos_as_xyz
  1  'x, y, z'
  2  '-x, -y, -z'
  3  '-y, x-y, z'
  4  'y, -x+y, -z'
  5  '-x+y, -x, z'
  6  'x-y, x, -z'
  7  'y, x, -z'
  8  '-y, -x, z'
  9  'x-y, -y, -z'
  10  '-x+y, y, z'
  11  '-x, -x+y, -z'
  12  'x, x-y, z'
loop_
 _atom_site_type_symbol
 _atom_site_label
 _atom_site_symmetry_multiplicity
 _atom_site_fract_x
 _atom_site_fract_y
 _atom_site_fract_z
 _atom_site_occupancy
  Li  Li0  2  0.00000000  0.00000000  0.25214500  1.0
  Li  Li1  2  0.33333333  0.66666667  0.64198000  1.0
  Fe  Fe2  2  0.33333333  0.66666667  0.13183100  1.0
  Fe  Fe3  1  0.00000000  0.00000000  0.00000000  1.0
  Fe  Fe4  1  0.00000000  0.00000000  0.50000000  1.0
  As  As5  2  0.33333333  0.66666667  0.38518400  1.0
  As  As6  2  0.33333333  0.66666667  0.89296200  1.0
