# generated using pymatgen
data_GaAs
_symmetry_space_group_name_H-M   P1
_cell_length_a   12.84217365
_cell_length_b   12.96300988
_cell_length_c   14.57984225
_cell_angle_alpha   87.38356555
_cell_angle_beta   85.68240033
_cell_angle_gamma   85.34912946
_symmetry_Int_Tables_number   1
_chemical_formula_structural   GaAs
_chemical_formula_sum   'Ga50 As50'
_cell_volume   2410.38570444
_cell_formula_units_Z   50
loop_
 _symmetry_equiv_pos_site_id
 _symmetry_equiv_pos_as_xyz
  1  'x, y, z'
loop_
 _atom_site_type_symbol
 _atom_site_label
 _atom_site_symmetry_multiplicity
 _atom_site_fract_x
 _atom_site_fract_y
 _atom_site_fract_z
 _atom_site_occupancy
  Ga  Ga0  1  0.00333010  0.79519802  0.15900105  1.0
  Ga  Ga1  1  0.06459252  0.82954232  0.47650541  1.0
  Ga  Ga2  1  0.08040183  0.50757822  0.47105601  1.0
  Ga  Ga3  1  0.08698899  0.88684940  0.28924462  1.0
  Ga  Ga4  1  0.14285356  0.82236569  0.63959044  1.0
  Ga  Ga5  1  0.16865329  0.36114656  0.37068927  1.0
  Ga  Ga6  1  0.17772559  0.66931657  0.37857529  1.0
  Ga  Ga7  1  0.19063067  0.16622068  0.36627566  1.0
  Ga  Ga8  1  0.20706665  0.17380683  0.89191857  1.0
  Ga  Ga9  1  0.21387621  0.89911787  0.98337370  1.0
  Ga  Ga10  1  0.22534748  0.43178543  0.57396940  1.0
  Ga  Ga11  1  0.25470125  0.56961432  0.23745628  1.0
  Ga  Ga12  1  0.30527283  0.89491313  0.46464866  1.0
  Ga  Ga13  1  0.31873524  0.16713532  0.11851233  1.0
  Ga  Ga14  1  0.32095257  0.04790234  0.98704761  1.0
  Ga  Ga15  1  0.36998692  0.12331237  0.65091530  1.0
  Ga  Ga16  1  0.38975913  0.63064235  0.93811165  1.0
  Ga  Ga17  1  0.41801849  0.74289653  0.26248268  1.0
  Ga  Ga18  1  0.42855610  0.72824496  0.69259442  1.0
  Ga  Ga19  1  0.43700563  0.53601300  0.74227827  1.0
  Ga  Ga20  1  0.43812128  0.93541084  0.13166687  1.0
  Ga  Ga21  1  0.46289562  0.85936638  0.55561392  1.0
  Ga  Ga22  1  0.48288224  0.13658947  0.41109477  1.0
  Ga  Ga23  1  0.48993449  0.35502561  0.19707580  1.0
  Ga  Ga24  1  0.50327600  0.62449060  0.38901718  1.0
  Ga  Ga25  1  0.56155981  0.94019956  0.37281332  1.0
  Ga  Ga26  1  0.58102109  0.26726764  0.81177844  1.0
  Ga  Ga27  1  0.58161066  0.24934218  0.99085660  1.0
  Ga  Ga28  1  0.59137842  0.63840925  0.90468249  1.0
  Ga  Ga29  1  0.59193813  0.95159311  0.77644496  1.0
  Ga  Ga30  1  0.64595671  0.47850704  0.15876035  1.0
  Ga  Ga31  1  0.65939714  0.30594454  0.64006206  1.0
  Ga  Ga32  1  0.67719349  0.83774640  0.60355958  1.0
  Ga  Ga33  1  0.69829837  0.54076149  0.66532473  1.0
  Ga  Ga34  1  0.70943586  0.13024825  0.54702388  1.0
  Ga  Ga35  1  0.72025525  0.27318500  0.11148843  1.0
  Ga  Ga36  1  0.73970971  0.73384197  0.97783695  1.0
  Ga  Ga37  1  0.75375071  0.52950908  0.48654113  1.0
  Ga  Ga38  1  0.76428481  0.85705192  0.82132626  1.0
  Ga  Ga39  1  0.77788586  0.81973720  0.34179629  1.0
  Ga  Ga40  1  0.81164193  0.57715051  0.09305742  1.0
  Ga  Ga41  1  0.85079491  0.36028064  0.65022921  1.0
  Ga  Ga42  1  0.85194045  0.66452306  0.80270250  1.0
  Ga  Ga43  1  0.85245839  0.38550149  0.19108800  1.0
  Ga  Ga44  1  0.87479862  0.66443412  0.53389288  1.0
  Ga  Ga45  1  0.87520420  0.30029574  0.35674876  1.0
  Ga  Ga46  1  0.91874778  0.06608869  0.55726516  1.0
  Ga  Ga47  1  0.92453801  0.23210132  0.05229715  1.0
  Ga  Ga48  1  0.96231779  0.01269785  0.75665771  1.0
  Ga  Ga49  1  0.96684997  0.67828527  0.37317324  1.0
  As  As50  1  0.04128133  0.04288695  0.39869355  1.0
  As  As51  1  0.04300778  0.89882402  0.89804167  1.0
  As  As52  1  0.05412378  0.36010445  0.22572013  1.0
  As  As53  1  0.07831991  0.16159314  0.76168579  1.0
  As  As54  1  0.08977808  0.30685710  0.98224896  1.0
  As  As55  1  0.10909474  0.52290824  0.14160896  1.0
  As  As56  1  0.11260462  0.15338960  0.58918918  1.0
  As  As57  1  0.11770976  0.21030840  0.13160528  1.0
  As  As58  1  0.12035778  0.57795895  0.81545551  1.0
  As  As59  1  0.16251089  0.76213441  0.80348273  1.0
  As  As60  1  0.17590067  0.73458442  0.06505693  1.0
  As  As61  1  0.23233505  0.99347739  0.60988713  1.0
  As  As62  1  0.26056698  0.71258120  0.52432778  1.0
  As  As63  1  0.26245250  0.48446659  0.89988707  1.0
  As  As64  1  0.27756120  0.23817750  0.52917986  1.0
  As  As65  1  0.28666791  0.90661746  0.29453324  1.0
  As  As66  1  0.30853708  0.40361664  0.74240356  1.0
  As  As67  1  0.33688692  0.79494281  0.84663754  1.0
  As  As68  1  0.35226647  0.41962428  0.31911000  1.0
  As  As69  1  0.35240615  0.67611678  0.11642424  1.0
  As  As70  1  0.35326478  0.08556957  0.27916971  1.0
  As  As71  1  0.37853798  0.22762104  0.79416514  1.0
  As  As72  1  0.40075190  0.48022841  0.47122451  1.0
  As  As73  1  0.40591898  0.32339174  0.05723656  1.0
  As  As74  1  0.48615605  0.94266798  0.92866147  1.0
  As  As75  1  0.52119442  0.32167219  0.51310107  1.0
  As  As76  1  0.55005230  0.01956383  0.61793294  1.0
  As  As77  1  0.60047583  0.46461065  0.81230922  1.0
  As  As78  1  0.60282555  0.04287761  0.01699428  1.0
  As  As79  1  0.60752165  0.81734949  0.23744514  1.0
  As  As80  1  0.61699154  0.75681133  0.46238627  1.0
  As  As81  1  0.61931512  0.21963632  0.26891645  1.0
  As  As82  1  0.62320253  0.71772283  0.73393369  1.0
  As  As83  1  0.66854326  0.51690968  0.33291488  1.0
  As  As84  1  0.66890703  0.33281202  0.39060424  1.0
  As  As85  1  0.69811316  0.88091230  0.09431429  1.0
  As  As86  1  0.73219202  0.05346762  0.38665656  1.0
  As  As87  1  0.78101098  0.02029195  0.92305278  1.0
  As  As88  1  0.79278548  0.13117459  0.77992058  1.0
  As  As89  1  0.85268250  0.94583381  0.16572399  1.0
  As  As90  1  0.86189746  0.86402559  0.55059864  1.0
  As  As91  1  0.89689650  0.11636001  0.30230444  1.0
  As  As92  1  0.90590364  0.54829128  0.67376036  1.0
  As  As93  1  0.91143779  0.27115604  0.80063975  1.0
  As  As94  1  0.92246267  0.39944677  0.48811474  1.0
  As  As95  1  0.92590120  0.04038571  0.02262711  1.0
  As  As96  1  0.93619990  0.83529255  0.70260480  1.0
  As  As97  1  0.94226134  0.76844851  0.99283307  1.0
  As  As98  1  0.94929797  0.61732971  0.21400688  1.0
  As  As99  1  0.96338013  0.59351441  0.93330863  1.0
