# generated using pymatgen
data_GaAs
_symmetry_space_group_name_H-M   P1
_cell_length_a   12.07351306
_cell_length_b   13.77612992
_cell_length_c   14.24261395
_cell_angle_alpha   90.86259565
_cell_angle_beta   93.94344961
_cell_angle_gamma   90.17534399
_symmetry_Int_Tables_number   1
_chemical_formula_structural   GaAs
_chemical_formula_sum   'Ga50 As50'
_cell_volume   2363.02469027
_cell_formula_units_Z   50
loop_
 _symmetry_equiv_pos_site_id
 _symmetry_equiv_pos_as_xyz
  1  'x, y, z'
loop_
 _atom_site_type_symbol
 _atom_site_label
 _atom_site_symmetry_multiplicity
 _atom_site_fract_x
 _atom_site_fract_y
 _atom_site_fract_z
 _atom_site_occupancy
  Ga  Ga0  1  0.04000817  0.48140743  0.44607293  1.0
  Ga  Ga1  1  0.05060553  0.71298550  0.39502745  1.0
  Ga  Ga2  1  0.05087134  0.34168295  0.73414547  1.0
  Ga  Ga3  1  0.10542537  0.57801514  0.95229747  1.0
  Ga  Ga4  1  0.10605689  0.00204870  0.91232545  1.0
  Ga  Ga5  1  0.12337329  0.76708581  0.86947423  1.0
  Ga  Ga6  1  0.13671753  0.04795097  0.37826818  1.0
  Ga  Ga7  1  0.14384530  0.19302105  0.03671045  1.0
  Ga  Ga8  1  0.15781838  0.03499637  0.15762333  1.0
  Ga  Ga9  1  0.20123918  0.76943822  0.16782936  1.0
  Ga  Ga10  1  0.28096850  0.48622079  0.12022347  1.0
  Ga  Ga11  1  0.28730968  0.21025216  0.57788789  1.0
  Ga  Ga12  1  0.30478352  0.62285072  0.89283503  1.0
  Ga  Ga13  1  0.30565501  0.81947333  0.41524449  1.0
  Ga  Ga14  1  0.36057579  0.06045764  0.66006294  1.0
  Ga  Ga15  1  0.37066564  0.26327618  0.16520380  1.0
  Ga  Ga16  1  0.37997238  0.20708909  0.79716841  1.0
  Ga  Ga17  1  0.39449626  0.98104088  0.03213377  1.0
  Ga  Ga18  1  0.44776649  0.95266028  0.44927113  1.0
  Ga  Ga19  1  0.46506297  0.63864163  0.58605976  1.0
  Ga  Ga20  1  0.48873573  0.74155797  0.73223321  1.0
  Ga  Ga21  1  0.49475316  0.35647407  0.05524816  1.0
  Ga  Ga22  1  0.51337025  0.39137474  0.57581564  1.0
  Ga  Ga23  1  0.52189894  0.39404174  0.31625735  1.0
  Ga  Ga24  1  0.53356435  0.20363238  0.36458152  1.0
  Ga  Ga25  1  0.54577526  0.60659756  0.13988690  1.0
  Ga  Ga26  1  0.59684731  0.19122107  0.18721385  1.0
  Ga  Ga27  1  0.61335459  0.91661168  0.88171047  1.0
  Ga  Ga28  1  0.62363041  0.65270233  0.95265015  1.0
  Ga  Ga29  1  0.71501382  0.72547984  0.62223609  1.0
  Ga  Ga30  1  0.71646377  0.57169181  0.73465364  1.0
  Ga  Ga31  1  0.75449264  0.31142303  0.70278580  1.0
  Ga  Ga32  1  0.77392601  0.50662614  0.34016611  1.0
  Ga  Ga33  1  0.78347163  0.01117073  0.71943997  1.0
  Ga  Ga34  1  0.79147956  0.27139776  0.21168043  1.0
  Ga  Ga35  1  0.80654626  0.46394682  0.59621514  1.0
  Ga  Ga36  1  0.85319524  0.07066757  0.02888953  1.0
  Ga  Ga37  1  0.86947003  0.66358067  0.26965632  1.0
  Ga  Ga38  1  0.87928850  0.30897664  0.50713724  1.0
  Ga  Ga39  1  0.88135800  0.48704262  0.15853497  1.0
  Ga  Ga40  1  0.89628715  0.63179342  0.50408441  1.0
  Ga  Ga41  1  0.90296750  0.10195440  0.44825640  1.0
  Ga  Ga42  1  0.90578096  0.67320741  0.06869130  1.0
  Ga  Ga43  1  0.91298459  0.74423279  0.69197424  1.0
  Ga  Ga44  1  0.91311456  0.64990126  0.87535009  1.0
  Ga  Ga45  1  0.91425850  0.84478520  0.20518419  1.0
  Ga  Ga46  1  0.93678075  0.37913878  0.00640244  1.0
  Ga  Ga47  1  0.97409374  0.08366314  0.24030440  1.0
  Ga  Ga48  1  0.97731232  0.52253310  0.71453418  1.0
  Ga  Ga49  1  0.98967868  0.12284997  0.81685817  1.0
  As  As50  1  0.01779889  0.07850475  0.64383120  1.0
  As  As51  1  0.07897803  0.23802294  0.58833640  1.0
  As  As52  1  0.10002413  0.67212161  0.69367190  1.0
  As  As53  1  0.11957457  0.60355079  0.14139406  1.0
  As  As54  1  0.12263860  0.86052563  0.30618399  1.0
  As  As55  1  0.16020793  0.38240714  0.99175079  1.0
  As  As56  1  0.17619791  0.74863529  0.54932784  1.0
  As  As57  1  0.17979028  0.57810011  0.32880317  1.0
  As  As58  1  0.18367451  0.96337569  0.63645366  1.0
  As  As59  1  0.20289205  0.45437125  0.59790792  1.0
  As  As60  1  0.20898026  0.89874736  0.04193676  1.0
  As  As61  1  0.23573534  0.34572575  0.83404643  1.0
  As  As62  1  0.23844332  0.91740440  0.80129955  1.0
  As  As63  1  0.27217524  0.59498734  0.51338394  1.0
  As  As64  1  0.31389262  0.39728985  0.27112116  1.0
  As  As65  1  0.31763103  0.49063113  0.75925102  1.0
  As  As66  1  0.32682726  0.36261356  0.49840910  1.0
  As  As67  1  0.35845950  0.08715407  0.20936684  1.0
  As  As68  1  0.35864823  0.10807653  0.38692816  1.0
  As  As69  1  0.37690215  0.65617557  0.35301894  1.0
  As  As70  1  0.38379387  0.16693882  0.98271175  1.0
  As  As71  1  0.40709285  0.72955513  0.20017707  1.0
  As  As72  1  0.41637061  0.00840037  0.84930916  1.0
  As  As73  1  0.42904523  0.52331161  0.00995552  1.0
  As  As74  1  0.46168844  0.75463214  0.90003044  1.0
  As  As75  1  0.48266595  0.89715107  0.23054220  1.0
  As  As76  1  0.52040590  0.45852637  0.74147339  1.0
  As  As77  1  0.53883988  0.01718142  0.59789485  1.0
  As  As78  1  0.57419112  0.29272125  0.80058615  1.0
  As  As79  1  0.59130075  0.13839249  0.00978245  1.0
  As  As80  1  0.60215248  0.89899739  0.09072989  1.0
  As  As81  1  0.60588538  0.67954349  0.47080125  1.0
  As  As82  1  0.61869677  0.89833149  0.36752953  1.0
  As  As83  1  0.62275658  0.87975656  0.68910322  1.0
  As  As84  1  0.63685851  0.49867774  0.47341667  1.0
  As  As85  1  0.64447820  0.26850834  0.50397816  1.0
  As  As86  1  0.64555731  0.45459204  0.19072481  1.0
  As  As87  1  0.65499189  0.30534877  0.96696910  1.0
  As  As88  1  0.69121214  0.06277726  0.32993413  1.0
  As  As89  1  0.69313707  0.73139495  0.10968011  1.0
  As  As90  1  0.75741345  0.52896644  0.90509827  1.0
  As  As91  1  0.77042927  0.99142011  0.18111715  1.0
  As  As92  1  0.77595306  0.15734776  0.59794166  1.0
  As  As93  1  0.78145796  0.12526223  0.86690752  1.0
  As  As94  1  0.82093195  0.82586917  0.90299614  1.0
  As  As95  1  0.89630640  0.29062647  0.84329933  1.0
  As  As96  1  0.91163581  0.36633500  0.33561852  1.0
  As  As97  1  0.94054244  0.89877376  0.78676999  1.0
  As  As98  1  0.94711632  0.21585618  0.10796996  1.0
  As  As99  1  0.94792111  0.90493388  0.02805148  1.0
