# generated using pymatgen
data_GeAs
_symmetry_space_group_name_H-M   I4mm
_cell_length_a   3.73319000
_cell_length_b   4.01788737
_cell_length_c   3.73319000
_cell_angle_alpha   62.31752172
_cell_angle_beta   90.00000000
_cell_angle_gamma   117.68247828
_symmetry_Int_Tables_number   107
_chemical_formula_structural   GeAs
_chemical_formula_sum   'Ge1 As1'
_cell_volume   42.21480288
_cell_formula_units_Z   1
loop_
 _symmetry_equiv_pos_site_id
 _symmetry_equiv_pos_as_xyz
  1  'x, y, z'
  2  '-z, y, x-y'
  3  '-x+y, y, -y-z'
  4  'y+z, y, -x'
  5  '-x+y, y, z'
  6  'y+z, y, x-y'
  7  'x, y, -y-z'
  8  '-z, y, -x'
loop_
 _atom_site_type_symbol
 _atom_site_label
 _atom_site_symmetry_multiplicity
 _atom_site_fract_x
 _atom_site_fract_y
 _atom_site_fract_z
 _atom_site_occupancy
  Ge  Ge0  1  0.99805400  0.99610800  0.00194600  1.0
  As  As1  1  0.41594600  0.83189200  0.58405400  1.0
