# generated using pymatgen
data_GeAsW
_symmetry_space_group_name_H-M   C2/m
_cell_length_a   3.31894800
_cell_length_b   4.94386875
_cell_length_c   6.92871213
_cell_angle_alpha   79.20478114
_cell_angle_beta   76.14256407
_cell_angle_gamma   70.38713809
_symmetry_Int_Tables_number   12
_chemical_formula_structural   GeAsW
_chemical_formula_sum   'Ge2 As2 W2'
_cell_volume   103.26357561
_cell_formula_units_Z   2
loop_
 _symmetry_equiv_pos_site_id
 _symmetry_equiv_pos_as_xyz
  1  'x, y, z'
  2  '-x, -y, -z'
  3  'x+y+z, -y, -z'
  4  '-x-y-z, y, z'
loop_
 _atom_site_type_symbol
 _atom_site_label
 _atom_site_symmetry_multiplicity
 _atom_site_fract_x
 _atom_site_fract_y
 _atom_site_fract_z
 _atom_site_occupancy
  Ge  Ge0  2  0.39627600  0.31183900  0.89560900  1.0
  As  As1  2  0.14424800  0.24586700  0.46563700  1.0
  W  W2  2  0.15430700  0.89126800  0.80011800  1.0
