# generated using pymatgen
data_GaAs
_symmetry_space_group_name_H-M   P1
_cell_length_a   12.78616969
_cell_length_b   13.16532651
_cell_length_c   14.29959307
_cell_angle_alpha   94.68853990
_cell_angle_beta   96.71769229
_cell_angle_gamma   91.25891309
_symmetry_Int_Tables_number   1
_chemical_formula_structural   GaAs
_chemical_formula_sum   'Ga50 As50'
_cell_volume   2381.37452867
_cell_formula_units_Z   50
loop_
 _symmetry_equiv_pos_site_id
 _symmetry_equiv_pos_as_xyz
  1  'x, y, z'
loop_
 _atom_site_type_symbol
 _atom_site_label
 _atom_site_symmetry_multiplicity
 _atom_site_fract_x
 _atom_site_fract_y
 _atom_site_fract_z
 _atom_site_occupancy
  Ga  Ga0  1  0.01526857  0.93858457  0.38947156  1.0
  Ga  Ga1  1  0.02337040  0.18260243  0.08669644  1.0
  Ga  Ga2  1  0.02902707  0.62472910  0.52519231  1.0
  Ga  Ga3  1  0.03879934  0.93175028  0.62847271  1.0
  Ga  Ga4  1  0.08423918  0.33944986  0.77519803  1.0
  Ga  Ga5  1  0.13146672  0.19380583  0.36153082  1.0
  Ga  Ga6  1  0.15792272  0.01769750  0.95089769  1.0
  Ga  Ga7  1  0.15987040  0.71190134  0.23638831  1.0
  Ga  Ga8  1  0.17588815  0.60877276  0.90618395  1.0
  Ga  Ga9  1  0.20958175  0.36143932  0.42562967  1.0
  Ga  Ga10  1  0.21447084  0.91363090  0.54720931  1.0
  Ga  Ga11  1  0.22161337  0.67208768  0.51829087  1.0
  Ga  Ga12  1  0.22478813  0.46401628  0.28840881  1.0
  Ga  Ga13  1  0.24366566  0.26805876  0.94896024  1.0
  Ga  Ga14  1  0.32339147  0.98116848  0.16930822  1.0
  Ga  Ga15  1  0.33987689  0.25168385  0.59357146  1.0
  Ga  Ga16  1  0.36736018  0.79705654  0.49365222  1.0
  Ga  Ga17  1  0.38408501  0.80161755  0.12962657  1.0
  Ga  Ga18  1  0.38419256  0.49725844  0.77463963  1.0
  Ga  Ga19  1  0.39084138  0.10968434  0.72963824  1.0
  Ga  Ga20  1  0.39140129  0.11394663  0.47844107  1.0
  Ga  Ga21  1  0.42592204  0.21764018  0.00546570  1.0
  Ga  Ga22  1  0.43155846  0.97181799  0.86060477  1.0
  Ga  Ga23  1  0.45017018  0.67819784  0.24968973  1.0
  Ga  Ga24  1  0.47704385  0.32820569  0.73812306  1.0
  Ga  Ga25  1  0.49995546  0.58571535  0.09010598  1.0
  Ga  Ga26  1  0.52499095  0.03826124  0.23890168  1.0
  Ga  Ga27  1  0.55388657  0.63709267  0.61758299  1.0
  Ga  Ga28  1  0.56302153  0.77814178  0.48987061  1.0
  Ga  Ga29  1  0.56524129  0.38629330  0.45313696  1.0
  Ga  Ga30  1  0.56633788  0.20499506  0.14864676  1.0
  Ga  Ga31  1  0.58739583  0.09078969  0.84995981  1.0
  Ga  Ga32  1  0.59746259  0.50239736  0.87291950  1.0
  Ga  Ga33  1  0.63741769  0.03310318  0.03019534  1.0
  Ga  Ga34  1  0.64964628  0.56717614  0.43666174  1.0
  Ga  Ga35  1  0.66295850  0.22023116  0.32834660  1.0
  Ga  Ga36  1  0.66337591  0.88774039  0.24103564  1.0
  Ga  Ga37  1  0.66379861  0.70902337  0.92551701  1.0
  Ga  Ga38  1  0.71727700  0.23996106  0.02385040  1.0
  Ga  Ga39  1  0.72521533  0.88347571  0.72120803  1.0
  Ga  Ga40  1  0.73902118  0.21121811  0.60073045  1.0
  Ga  Ga41  1  0.75985396  0.75605077  0.57911828  1.0
  Ga  Ga42  1  0.77278000  0.29601651  0.20352148  1.0
  Ga  Ga43  1  0.85574601  0.11548690  0.98151276  1.0
  Ga  Ga44  1  0.86109408  0.35526650  0.52033433  1.0
  Ga  Ga45  1  0.87462803  0.20565693  0.38168932  1.0
  Ga  Ga46  1  0.88919821  0.93025977  0.84372055  1.0
  Ga  Ga47  1  0.89849874  0.08861723  0.61605812  1.0
  Ga  Ga48  1  0.92977475  0.92352044  0.16085089  1.0
  Ga  Ga49  1  0.96570582  0.74390885  0.68099558  1.0
  As  As50  1  0.01998637  0.45905700  0.32335187  1.0
  As  As51  1  0.03312561  0.12118791  0.48935897  1.0
  As  As52  1  0.04844613  0.43046671  0.49349214  1.0
  As  As53  1  0.05843715  0.82657280  0.03198118  1.0
  As  As54  1  0.07112293  0.85978587  0.86292942  1.0
  As  As55  1  0.09971876  0.16304847  0.85368599  1.0
  As  As56  1  0.11766191  0.00038828  0.12120509  1.0
  As  As57  1  0.14896111  0.23024286  0.62717789  1.0
  As  As58  1  0.18639898  0.08494339  0.72317618  1.0
  As  As59  1  0.19944591  0.89441688  0.35728317  1.0
  As  As60  1  0.20895753  0.71539000  0.07121896  1.0
  As  As61  1  0.21007185  0.24892598  0.11687302  1.0
  As  As62  1  0.22641319  0.43675224  0.11660721  1.0
  As  As63  1  0.24073725  0.43390777  0.86539333  1.0
  As  As64  1  0.27032965  0.06391235  0.32802155  1.0
  As  As65  1  0.29870082  0.63656586  0.34339065  1.0
  As  As66  1  0.35351412  0.67773868  0.85465011  1.0
  As  As67  1  0.35418789  0.03496852  0.00082790  1.0
  As  As68  1  0.36499205  0.56849241  0.61279957  1.0
  As  As69  1  0.38194061  0.40982994  0.51552107  1.0
  As  As70  1  0.39193180  0.81490165  0.74940401  1.0
  As  As71  1  0.40875299  0.97852513  0.58882967  1.0
  As  As72  1  0.41710755  0.41224326  0.09480007  1.0
  As  As73  1  0.48269720  0.73482365  0.99198822  1.0
  As  As74  1  0.52257354  0.38013010  0.25453521  1.0
  As  As75  1  0.55305872  0.27028656  0.89856400  1.0
  As  As76  1  0.57871374  0.76705438  0.76078239  1.0
  As  As77  1  0.58737444  0.14620713  0.46109699  1.0
  As  As78  1  0.60026399  0.95670786  0.41852456  1.0
  As  As79  1  0.62262931  0.35935664  0.63335182  1.0
  As  As80  1  0.62735590  0.71916012  0.33400434  1.0
  As  As81  1  0.68974221  0.07004150  0.71558725  1.0
  As  As82  1  0.69904372  0.53589975  0.11162303  1.0
  As  As83  1  0.70026764  0.52755901  0.69073310  1.0
  As  As84  1  0.70374610  0.46263837  0.26984503  1.0
  As  As85  1  0.75992193  0.41673847  0.98307944  1.0
  As  As86  1  0.79421952  0.97023489  0.46418158  1.0
  As  As87  1  0.80430397  0.93012830  0.00381617  1.0
  As  As88  1  0.81335196  0.56376280  0.56152040  1.0
  As  As89  1  0.81612341  0.68542399  0.08656519  1.0
  As  As90  1  0.84339259  0.01714542  0.30686824  1.0
  As  As91  1  0.87102797  0.11657594  0.80231683  1.0
  As  As92  1  0.90243856  0.81165019  0.47298287  1.0
  As  As93  1  0.90919527  0.62965702  0.36342831  1.0
  As  As94  1  0.91819264  0.42657759  0.81385108  1.0
  As  As95  1  0.95342122  0.41998401  0.99101826  1.0
  As  As96  1  0.96450248  0.73468820  0.23890980  1.0
  As  As97  1  0.97379204  0.61344661  0.01834153  1.0
  As  As98  1  0.97432874  0.27287497  0.24935240  1.0
  As  As99  1  0.98085220  0.61120498  0.83882078  1.0
