# generated using pymatgen
data_GaAs
_symmetry_space_group_name_H-M   P1
_cell_length_a   12.70999271
_cell_length_b   13.76635865
_cell_length_c   13.52826197
_cell_angle_alpha   92.31059652
_cell_angle_beta   92.14585441
_cell_angle_gamma   96.82493757
_symmetry_Int_Tables_number   1
_chemical_formula_structural   GaAs
_chemical_formula_sum   'Ga50 As50'
_cell_volume   2346.23138867
_cell_formula_units_Z   50
loop_
 _symmetry_equiv_pos_site_id
 _symmetry_equiv_pos_as_xyz
  1  'x, y, z'
loop_
 _atom_site_type_symbol
 _atom_site_label
 _atom_site_symmetry_multiplicity
 _atom_site_fract_x
 _atom_site_fract_y
 _atom_site_fract_z
 _atom_site_occupancy
  Ga  Ga0  1  0.00921981  0.23105030  0.31377713  1.0
  Ga  Ga1  1  0.01356393  0.32580166  0.94690036  1.0
  Ga  Ga2  1  0.07184687  0.64966166  0.47471717  1.0
  Ga  Ga3  1  0.13911274  0.87023768  0.97439889  1.0
  Ga  Ga4  1  0.16809264  0.91722942  0.52930732  1.0
  Ga  Ga5  1  0.17023343  0.45720492  0.03476731  1.0
  Ga  Ga6  1  0.17891276  0.06377527  0.41734775  1.0
  Ga  Ga7  1  0.20741942  0.40243641  0.21380078  1.0
  Ga  Ga8  1  0.21389623  0.68702673  0.63097194  1.0
  Ga  Ga9  1  0.25699656  0.45535091  0.86366786  1.0
  Ga  Ga10  1  0.25980890  0.24799612  0.29132631  1.0
  Ga  Ga11  1  0.26663155  0.56126803  0.44000311  1.0
  Ga  Ga12  1  0.28869662  0.51851196  0.68402414  1.0
  Ga  Ga13  1  0.29344387  0.91366478  0.25252724  1.0
  Ga  Ga14  1  0.30218003  0.76719146  0.46348701  1.0
  Ga  Ga15  1  0.31217957  0.15393895  0.64585477  1.0
  Ga  Ga16  1  0.32122257  0.82364682  0.96904013  1.0
  Ga  Ga17  1  0.33214075  0.60751910  0.06037214  1.0
  Ga  Ga18  1  0.36032806  0.28779633  0.51574700  1.0
  Ga  Ga19  1  0.36368262  0.11743658  0.07545176  1.0
  Ga  Ga20  1  0.37891211  0.11558658  0.37058480  1.0
  Ga  Ga21  1  0.40736476  0.00470852  0.66458565  1.0
  Ga  Ga22  1  0.41090733  0.27080486  0.98702750  1.0
  Ga  Ga23  1  0.41732205  0.71434840  0.69683456  1.0
  Ga  Ga24  1  0.43553909  0.39939388  0.77022799  1.0
  Ga  Ga25  1  0.47452364  0.31263879  0.34193729  1.0
  Ga  Ga26  1  0.51966937  0.48310922  0.62796004  1.0
  Ga  Ga27  1  0.55190710  0.64426595  0.44584530  1.0
  Ga  Ga28  1  0.55625645  0.64327662  0.18353933  1.0
  Ga  Ga29  1  0.56061611  0.35634123  0.17992301  1.0
  Ga  Ga30  1  0.57693413  0.87975104  0.06039073  1.0
  Ga  Ga31  1  0.58400576  0.68744024  0.89307066  1.0
  Ga  Ga32  1  0.61277701  0.20794413  0.43771806  1.0
  Ga  Ga33  1  0.62955194  0.88576017  0.85458123  1.0
  Ga  Ga34  1  0.65531140  0.17918881  0.95313488  1.0
  Ga  Ga35  1  0.65930240  0.05867284  0.55124166  1.0
  Ga  Ga36  1  0.66284159  0.45679735  0.43181997  1.0
  Ga  Ga37  1  0.68313613  0.00319370  0.19184714  1.0
  Ga  Ga38  1  0.73669888  0.74191687  0.02101576  1.0
  Ga  Ga39  1  0.75767619  0.04275586  0.37229227  1.0
  Ga  Ga40  1  0.77274720  0.15903917  0.80614234  1.0
  Ga  Ga41  1  0.77650996  0.63277183  0.60645800  1.0
  Ga  Ga42  1  0.78956815  0.45687506  0.67546666  1.0
  Ga  Ga43  1  0.82089136  0.23512397  0.17456991  1.0
  Ga  Ga44  1  0.83333021  0.63556886  0.20484412  1.0
  Ga  Ga45  1  0.84983871  0.20862588  0.58932213  1.0
  Ga  Ga46  1  0.89876347  0.02760182  0.79807397  1.0
  Ga  Ga47  1  0.91017990  0.45109192  0.05172041  1.0
  Ga  Ga48  1  0.98998717  0.49113497  0.65832973  1.0
  Ga  Ga49  1  0.99245714  0.17389470  0.06110848  1.0
  As  As50  1  0.01020673  0.41249321  0.22087252  1.0
  As  As51  1  0.06933073  0.64623722  0.76136957  1.0
  As  As52  1  0.06994777  0.11494753  0.88416317  1.0
  As  As53  1  0.11931811  0.15049834  0.58287949  1.0
  As  As54  1  0.12303718  0.27169491  0.79469117  1.0
  As  As55  1  0.13758208  0.67140596  0.20068263  1.0
  As  As56  1  0.13913381  0.45388813  0.54751390  1.0
  As  As57  1  0.14475590  0.96500557  0.13975682  1.0
  As  As58  1  0.14975894  0.80466200  0.34442914  1.0
  As  As59  1  0.15391495  0.28554741  0.46547006  1.0
  As  As60  1  0.17545034  0.14538140  0.13630020  1.0
  As  As61  1  0.19328923  0.98550824  0.83300631  1.0
  As  As62  1  0.25405796  0.87132586  0.68840065  1.0
  As  As63  1  0.28464295  0.57842260  0.25392729  1.0
  As  As64  1  0.31681404  0.25076736  0.81605871  1.0
  As  As65  1  0.36947509  0.00031022  0.92864964  1.0
  As  As66  1  0.37943346  0.68232554  0.87988212  1.0
  As  As67  1  0.41338016  0.78250712  0.13344734  1.0
  As  As68  1  0.42847084  0.44029301  0.07068732  1.0
  As  As69  1  0.43477145  0.47302707  0.45094274  1.0
  As  As70  1  0.44461043  0.74579097  0.33158111  1.0
  As  As71  1  0.44963866  0.98665226  0.48340192  1.0
  As  As72  1  0.45275072  0.04301209  0.21609872  1.0
  As  As73  1  0.52801671  0.04034557  0.82526382  1.0
  As  As74  1  0.53093481  0.49364908  0.92435048  1.0
  As  As75  1  0.55589892  0.79703541  0.56848434  1.0
  As  As76  1  0.57580304  0.88716871  0.40060484  1.0
  As  As77  1  0.60081388  0.33127409  0.86074736  1.0
  As  As78  1  0.61142033  0.64704681  0.70897353  1.0
  As  As79  1  0.61672386  0.18027339  0.13170761  1.0
  As  As80  1  0.61701880  0.18416207  0.69427850  1.0
  As  As81  1  0.64057424  0.35194553  0.58755524  1.0
  As  As82  1  0.69774646  0.91635308  0.66517807  1.0
  As  As83  1  0.72710894  0.78302013  0.20542131  1.0
  As  As84  1  0.74025852  0.45537349  0.16432797  1.0
  As  As85  1  0.74216357  0.63182857  0.42248431  1.0
  As  As86  1  0.77922467  0.43657924  0.86021128  1.0
  As  As87  1  0.81439965  0.40963564  0.32961542  1.0
  As  As88  1  0.81857451  0.23633920  0.38155317  1.0
  As  As89  1  0.84139290  0.90451074  0.93866640  1.0
  As  As90  1  0.86847382  0.01802197  0.09291604  1.0
  As  As91  1  0.88747268  0.63485901  0.01512618  1.0
  As  As92  1  0.89331989  0.89533168  0.65035302  1.0
  As  As93  1  0.89634543  0.32066095  0.78286611  1.0
  As  As94  1  0.96337163  0.71854669  0.62658572  1.0
  As  As95  1  0.96436155  0.91010943  0.20543109  1.0
  As  As96  1  0.96993150  0.01964582  0.36152016  1.0
  As  As97  1  0.97012676  0.87361781  0.47822386  1.0
  As  As98  1  0.97154889  0.76924605  0.91062617  1.0
  As  As99  1  0.99781885  0.58123151  0.29840674  1.0
