# generated using pymatgen
data_ReGeAs
_symmetry_space_group_name_H-M   C2/m
_cell_length_a   3.23692400
_cell_length_b   4.87237646
_cell_length_c   6.91518719
_cell_angle_alpha   80.91674212
_cell_angle_beta   76.46468997
_cell_angle_gamma   70.59940257
_symmetry_Int_Tables_number   12
_chemical_formula_structural   ReGeAs
_chemical_formula_sum   'Re2 Ge2 As2'
_cell_volume   99.63062507
_cell_formula_units_Z   2
loop_
 _symmetry_equiv_pos_site_id
 _symmetry_equiv_pos_as_xyz
  1  'x, y, z'
  2  '-x, -y, -z'
  3  'x+y+z, -y, -z'
  4  '-x-y-z, y, z'
loop_
 _atom_site_type_symbol
 _atom_site_label
 _atom_site_symmetry_multiplicity
 _atom_site_fract_x
 _atom_site_fract_y
 _atom_site_fract_z
 _atom_site_occupancy
  Re  Re0  2  0.16054900  0.88968200  0.78922000  1.0
  Ge  Ge1  2  0.39665800  0.31081200  0.89587200  1.0
  As  As2  2  0.14110500  0.24532300  0.47246700  1.0
