# generated using pymatgen
data_GaAs
_symmetry_space_group_name_H-M   P1
_cell_length_a   12.96934715
_cell_length_b   13.18272457
_cell_length_c   13.63101490
_cell_angle_alpha   87.61451738
_cell_angle_beta   89.35110935
_cell_angle_gamma   88.34906229
_symmetry_Int_Tables_number   1
_chemical_formula_structural   GaAs
_chemical_formula_sum   'Ga50 As50'
_cell_volume   2327.40696285
_cell_formula_units_Z   50
loop_
 _symmetry_equiv_pos_site_id
 _symmetry_equiv_pos_as_xyz
  1  'x, y, z'
loop_
 _atom_site_type_symbol
 _atom_site_label
 _atom_site_symmetry_multiplicity
 _atom_site_fract_x
 _atom_site_fract_y
 _atom_site_fract_z
 _atom_site_occupancy
  Ga  Ga0  1  0.01741392  0.87005073  0.19342977  1.0
  Ga  Ga1  1  0.02268966  0.00030147  0.37384607  1.0
  Ga  Ga2  1  0.07265587  0.31782736  0.46247737  1.0
  Ga  Ga3  1  0.08112833  0.94160988  0.86806989  1.0
  Ga  Ga4  1  0.09133502  0.34295604  0.95763826  1.0
  Ga  Ga5  1  0.10872138  0.60293457  0.58784261  1.0
  Ga  Ga6  1  0.16296266  0.94586667  0.52290109  1.0
  Ga  Ga7  1  0.18662994  0.18058476  0.88567680  1.0
  Ga  Ga8  1  0.19451003  0.74420507  0.29961316  1.0
  Ga  Ga9  1  0.19580849  0.14426768  0.38387013  1.0
  Ga  Ga10  1  0.19889744  0.95009105  0.28252987  1.0
  Ga  Ga11  1  0.20232594  0.58652769  0.96321720  1.0
  Ga  Ga12  1  0.21909204  0.83750789  0.08853376  1.0
  Ga  Ga13  1  0.21947733  0.56827998  0.20708120  1.0
  Ga  Ga14  1  0.23128712  0.00484999  0.97239142  1.0
  Ga  Ga15  1  0.34137763  0.15200208  0.05420703  1.0
  Ga  Ga16  1  0.34205887  0.66928837  0.07887750  1.0
  Ga  Ga17  1  0.34239961  0.40053178  0.23978631  1.0
  Ga  Ga18  1  0.35517262  0.40499644  0.58948161  1.0
  Ga  Ga19  1  0.36339136  0.78078052  0.59209663  1.0
  Ga  Ga20  1  0.36392158  0.06459013  0.23898614  1.0
  Ga  Ga21  1  0.41259948  0.22016875  0.87366200  1.0
  Ga  Ga22  1  0.41810858  0.59496514  0.73901706  1.0
  Ga  Ga23  1  0.43885913  0.22764460  0.66719297  1.0
  Ga  Ga24  1  0.46657558  0.52689987  0.32779768  1.0
  Ga  Ga25  1  0.48335446  0.06172639  0.54455144  1.0
  Ga  Ga26  1  0.48902519  0.88743570  0.32746306  1.0
  Ga  Ga27  1  0.51079861  0.25347495  0.48008013  1.0
  Ga  Ga28  1  0.52517342  0.50957986  0.55631351  1.0
  Ga  Ga29  1  0.55827180  0.44147187  0.74907498  1.0
  Ga  Ga30  1  0.57693554  0.08460004  0.34837097  1.0
  Ga  Ga31  1  0.57755604  0.45406980  0.00025051  1.0
  Ga  Ga32  1  0.61284060  0.27398966  0.87394386  1.0
  Ga  Ga33  1  0.63043363  0.47266196  0.19596374  1.0
  Ga  Ga34  1  0.70080681  0.89958225  0.37874718  1.0
  Ga  Ga35  1  0.72360548  0.65671634  0.24007760  1.0
  Ga  Ga36  1  0.74806428  0.83460447  0.74298518  1.0
  Ga  Ga37  1  0.75344763  0.50429365  0.72522206  1.0
  Ga  Ga38  1  0.76057697  0.66497592  0.52187480  1.0
  Ga  Ga39  1  0.76862213  0.57911685  0.94203697  1.0
  Ga  Ga40  1  0.77003234  0.47207621  0.52428850  1.0
  Ga  Ga41  1  0.86846131  0.33117589  0.62736302  1.0
  Ga  Ga42  1  0.87228715  0.90487883  0.99006007  1.0
  Ga  Ga43  1  0.90097971  0.91508343  0.49758493  1.0
  Ga  Ga44  1  0.92110970  0.30839353  0.06193076  1.0
  Ga  Ga45  1  0.94918884  0.08128794  0.12893996  1.0
  Ga  Ga46  1  0.96598318  0.61075922  0.92400004  1.0
  Ga  Ga47  1  0.97280522  0.19479050  0.35504875  1.0
  Ga  Ga48  1  0.97864840  0.96194126  0.69295415  1.0
  Ga  Ga49  1  0.99572224  0.13459107  0.81857272  1.0
  As  As50  1  0.01061428  0.67165817  0.30471487  1.0
  As  As51  1  0.02328564  0.78036568  0.99648884  1.0
  As  As52  1  0.05158891  0.72546588  0.72596440  1.0
  As  As53  1  0.05860794  0.51453697  0.08374918  1.0
  As  As54  1  0.06562782  0.24580362  0.19248041  1.0
  As  As55  1  0.08938635  0.13833482  0.58010102  1.0
  As  As56  1  0.13869740  0.07546420  0.13432338  1.0
  As  As57  1  0.16464436  0.45290103  0.80695607  1.0
  As  As58  1  0.17560159  0.87136252  0.70666296  1.0
  As  As59  1  0.17908938  0.35106904  0.65306028  1.0
  As  As60  1  0.20122252  0.74169020  0.48623085  1.0
  As  As61  1  0.23705931  0.17545156  0.70048045  1.0
  As  As62  1  0.25460756  0.68995604  0.80414424  1.0
  As  As63  1  0.25547114  0.38377866  0.41350403  1.0
  As  As64  1  0.25780654  0.33082633  0.08727218  1.0
  As  As65  1  0.31267273  0.55648920  0.46395022  1.0
  As  As66  1  0.35277358  0.40820366  0.82849809  1.0
  As  As67  1  0.36486645  0.94212581  0.47076598  1.0
  As  As68  1  0.37205981  0.45885045  0.00083521  1.0
  As  As69  1  0.37513426  0.77557374  0.91240559  1.0
  As  As70  1  0.38541053  0.23076796  0.33742072  1.0
  As  As71  1  0.42641952  0.86732535  0.14521170  1.0
  As  As72  1  0.50627420  0.99748139  0.03066862  1.0
  As  As73  1  0.52877157  0.70019480  0.11631428  1.0
  As  As74  1  0.52995778  0.64926062  0.92688711  1.0
  As  As75  1  0.54182306  0.04823966  0.72963517  1.0
  As  As76  1  0.55080392  0.69895861  0.34701444  1.0
  As  As77  1  0.55983586  0.69734232  0.53008371  1.0
  As  As78  1  0.61623139  0.40576259  0.42256945  1.0
  As  As79  1  0.62473271  0.87036564  0.94869311  1.0
  As  As80  1  0.63194531  0.92432987  0.61100186  1.0
  As  As81  1  0.64682497  0.20238641  0.70280410  1.0
  As  As82  1  0.65538590  0.01807637  0.15636865  1.0
  As  As83  1  0.66594571  0.66708424  0.79235082  1.0
  As  As84  1  0.69220304  0.17516387  0.04390216  1.0
  As  As85  1  0.72981553  0.84698392  0.10665546  1.0
  As  As86  1  0.74812302  0.04333294  0.52353160  1.0
  As  As87  1  0.75225152  0.29954518  0.16803717  1.0
  As  As88  1  0.75694587  0.97548125  0.85650073  1.0
  As  As89  1  0.77221661  0.19383687  0.32448088  1.0
  As  As90  1  0.77639769  0.38465958  0.89826382  1.0
  As  As91  1  0.83714089  0.02424069  0.26805899  1.0
  As  As92  1  0.83776125  0.75237994  0.36896607  1.0
  As  As93  1  0.86952531  0.14142385  0.97532519  1.0
  As  As94  1  0.87240119  0.13461784  0.65052200  1.0
  As  As95  1  0.88565204  0.77250284  0.62868847  1.0
  As  As96  1  0.93738992  0.34465332  0.80077608  1.0
  As  As97  1  0.93756952  0.65415854  0.14009026  1.0
  As  As98  1  0.94814031  0.53086588  0.75148300  1.0
  As  As99  1  0.98022295  0.47286295  0.52461977  1.0
