# generated using pymatgen
data_HfAsRu
_symmetry_space_group_name_H-M   Ima2
_cell_length_a   6.70329200
_cell_length_b   7.68186883
_cell_length_c   7.65279000
_cell_angle_alpha   119.87485928
_cell_angle_beta   90.00000000
_cell_angle_gamma   115.86843030
_symmetry_Int_Tables_number   46
_chemical_formula_structural   HfAsRu
_chemical_formula_sum   'Hf6 As6 Ru6'
_cell_volume   295.29752287
_cell_formula_units_Z   6
loop_
 _symmetry_equiv_pos_site_id
 _symmetry_equiv_pos_as_xyz
  1  'x, y, z'
  2  'x-y, -y, -z'
  3  'x, y, y-z+1/2'
  4  'x-y, -y, -y+z+1/2'
loop_
 _atom_site_type_symbol
 _atom_site_label
 _atom_site_symmetry_multiplicity
 _atom_site_fract_x
 _atom_site_fract_y
 _atom_site_fract_z
 _atom_site_occupancy
  Hf  Hf0  2  0.25718200  0.56516400  0.03258200  1.0
  Hf  Hf1  2  0.25779500  0.60434200  0.55217100  1.0
  Hf  Hf2  2  0.83190100  0.99724100  0.24862000  1.0
  As  As3  4  0.58744400  0.66723400  0.33857100  1.0
  As  As4  2  0.22346200  0.94654300  0.22327200  1.0
  Ru  Ru5  4  0.00757000  0.75523100  0.40549800  1.0
  Ru  Ru6  2  0.49854200  0.00000000  0.00000000  1.0
