# generated using pymatgen
data_LaAsIr
_symmetry_space_group_name_H-M   I4_1md
_cell_length_a   4.24115400
_cell_length_b   4.24115400
_cell_length_c   8.06575723
_cell_angle_alpha   105.24286611
_cell_angle_beta   105.24286611
_cell_angle_gamma   89.99999999
_symmetry_Int_Tables_number   109
_chemical_formula_structural   LaAsIr
_chemical_formula_sum   'La2 As2 Ir2'
_cell_volume   134.68066994
_cell_formula_units_Z   2
loop_
 _symmetry_equiv_pos_site_id
 _symmetry_equiv_pos_as_xyz
  1  'x, y, z'
  2  '-y+z+3/4, x+1/4, z+1/2'
  3  '-x+z, -y+z, z'
  4  'y+3/4, -x+z+1/4, z+1/2'
  5  '-x+z, y, z'
  6  'y+3/4, x+1/4, z+1/2'
  7  'x, -y+z, z'
  8  '-y+z+3/4, -x+z+1/4, z+1/2'
loop_
 _atom_site_type_symbol
 _atom_site_label
 _atom_site_symmetry_multiplicity
 _atom_site_fract_x
 _atom_site_fract_y
 _atom_site_fract_z
 _atom_site_occupancy
  La  La0  2  0.74973000  0.24973000  0.49946000  1.0
  As  As1  2  0.32695700  0.82695700  0.65391400  1.0
  Ir  Ir2  2  0.16131300  0.66131300  0.32262600  1.0
