# generated using pymatgen
data_ZrAsOs
_symmetry_space_group_name_H-M   P-62m
_cell_length_a   4.00826100
_cell_length_b   6.60728600
_cell_length_c   6.60728641
_cell_angle_alpha   119.99999795
_cell_angle_beta   90.00000000
_cell_angle_gamma   90.00000000
_symmetry_Int_Tables_number   189
_chemical_formula_structural   ZrAsOs
_chemical_formula_sum   'Zr3 As3 Os3'
_cell_volume   151.54195040
_cell_formula_units_Z   3
loop_
 _symmetry_equiv_pos_site_id
 _symmetry_equiv_pos_as_xyz
  1  'x, y, z'
  2  '-x, -y+z, -y'
  3  'x, -z, y-z'
  4  '-x, y, z'
  5  'x, -y+z, -y'
  6  '-x, -z, y-z'
  7  'x, -y, -y+z'
  8  '-x, y-z, -z'
  9  'x, z, y'
  10  '-x, -y, -y+z'
  11  'x, y-z, -z'
  12  '-x, z, y'
loop_
 _atom_site_type_symbol
 _atom_site_label
 _atom_site_symmetry_multiplicity
 _atom_site_fract_x
 _atom_site_fract_y
 _atom_site_fract_z
 _atom_site_occupancy
  Zr  Zr0  3  0.50000000  0.00000000  0.41844200  1.0
  As  As1  2  0.00000000  0.33333333  0.66666667  1.0
  As  As2  1  0.50000000  0.00000000  0.00000000  1.0
  Os  Os3  3  0.00000000  0.00000000  0.75534500  1.0
