# generated using pymatgen
data_AsPd2
_symmetry_space_group_name_H-M   Cmc2_1
_cell_length_a   3.33114400
_cell_length_b   6.70494500
_cell_length_c   8.75637269
_cell_angle_alpha   90.00000000
_cell_angle_beta   100.96518878
_cell_angle_gamma   90.00000000
_symmetry_Int_Tables_number   36
_chemical_formula_structural   AsPd2
_chemical_formula_sum   'As4 Pd8'
_cell_volume   192.00416420
_cell_formula_units_Z   4
loop_
 _symmetry_equiv_pos_site_id
 _symmetry_equiv_pos_as_xyz
  1  'x, y, z'
  2  '-x, y+1/2, -z'
  3  '-x+z, y, z'
  4  'x-z, y+1/2, -z'
loop_
 _atom_site_type_symbol
 _atom_site_label
 _atom_site_symmetry_multiplicity
 _atom_site_fract_x
 _atom_site_fract_y
 _atom_site_fract_z
 _atom_site_occupancy
  As  As0  2  0.20388000  0.23182700  0.40776000  1.0
  As  As1  2  0.44160700  0.19726300  0.88321400  1.0
  Pd  Pd2  2  0.03832900  0.98976100  0.07665800  1.0
  Pd  Pd3  2  0.17094000  0.60771400  0.34188000  1.0
  Pd  Pd4  2  0.32540400  0.46082600  0.65080800  1.0
  Pd  Pd5  2  0.41500100  0.82690900  0.83000200  1.0
