# generated using pymatgen
data_AsPd5
_symmetry_space_group_name_H-M   C2/m
_cell_length_a   4.82103153
_cell_length_b   4.82103153
_cell_length_c   8.59702924
_cell_angle_alpha   95.03559509
_cell_angle_beta   95.03559509
_cell_angle_gamma   108.76287584
_symmetry_Int_Tables_number   12
_chemical_formula_structural   AsPd5
_chemical_formula_sum   'As2 Pd10'
_cell_volume   187.03536243
_cell_formula_units_Z   2
loop_
 _symmetry_equiv_pos_site_id
 _symmetry_equiv_pos_as_xyz
  1  'x, y, z'
  2  '-x, -y, -z'
  3  '-y, -x, -z'
  4  'y, x, z'
loop_
 _atom_site_type_symbol
 _atom_site_label
 _atom_site_symmetry_multiplicity
 _atom_site_fract_x
 _atom_site_fract_y
 _atom_site_fract_z
 _atom_site_occupancy
  As  As0  2  0.22734500  0.22734500  0.71268300  1.0
  Pd  Pd1  4  0.20324300  0.72404700  0.82588400  1.0
  Pd  Pd2  2  0.18410400  0.81589600  0.50000000  1.0
  Pd  Pd3  2  0.25673500  0.25673500  0.00687300  1.0
  Pd  Pd4  2  0.35419000  0.35419000  0.35201400  1.0
