# generated using pymatgen
data_Ba1Fe1.24As2Ru0.76
_symmetry_space_group_name_H-M   I-4m2
_cell_length_a   4.09486400
_cell_length_b   4.09486400
_cell_length_c   6.95494631
_cell_angle_alpha   107.12066409
_cell_angle_beta   107.12066408
_cell_angle_gamma   90.00000001
_symmetry_Int_Tables_number   119
_chemical_formula_structural   Ba1Fe1.24As2Ru0.76
_chemical_formula_sum   'Ba1 Fe1.24 As2 Ru0.76'
_cell_volume   106.03277508
_cell_formula_units_Z   1
loop_
 _symmetry_equiv_pos_site_id
 _symmetry_equiv_pos_as_xyz
  1  'x, y, z'
  2  'y-z, -x, -z'
  3  '-x+z, -y+z, z'
  4  '-y, x-z, -z'
  5  'x, -y+z, z'
  6  'y-z, x-z, -z'
  7  '-x+z, y, z'
  8  '-y, -x, -z'
loop_
 _atom_site_type_symbol
 _atom_site_label
 _atom_site_symmetry_multiplicity
 _atom_site_fract_x
 _atom_site_fract_y
 _atom_site_fract_z
 _atom_site_occupancy
  Ba  Ba0  1  0.00000000  0.00000000  0.00000000  1.0
  Fe  Fe1  1  0.75000000  0.25000000  0.50000000  1.0
  Ru  Ru2  1  0.25000000  0.75000000  0.50000000  0.76
  Fe  Fe3  1  0.25000000  0.75000000  0.50000000  0.24
  As  As4  2  0.34896400  0.34896400  0.69792800  1.0
