# generated using pymatgen
data_K2.25Ba2.75Fe10As10
_symmetry_space_group_name_H-M   I4/m
_cell_length_a   8.81847000
_cell_length_b   8.96054061
_cell_length_c   8.81847000
_cell_angle_alpha   60.52311231
_cell_angle_beta   89.99999999
_cell_angle_gamma   119.47688768
_symmetry_Int_Tables_number   87
_chemical_formula_structural   K2.25Ba2.75Fe10As10
_chemical_formula_sum   'K2.25 Ba2.75 Fe10 As10'
_cell_volume   500.41654508
_cell_formula_units_Z   1
loop_
 _symmetry_equiv_pos_site_id
 _symmetry_equiv_pos_as_xyz
  1  'x, y, z'
  2  '-x, -y, -z'
  3  '-z, y, x-y'
  4  'z, -y, -x+y'
  5  '-x+y, y, -y-z'
  6  'x-y, -y, y+z'
  7  'y+z, y, -x'
  8  '-y-z, -y, x'
loop_
 _atom_site_type_symbol
 _atom_site_label
 _atom_site_symmetry_multiplicity
 _atom_site_fract_x
 _atom_site_fract_y
 _atom_site_fract_z
 _atom_site_occupancy
  K  K0  1  0.00000000  0.00000000  0.00000000  1.0
  Ba  Ba1  4  0.19771300  0.00000000  0.39358600  0.6875
  K  K2  4  0.19771300  0.00000000  0.39358600  0.3125
  Fe  Fe3  8  0.05013800  0.50091000  0.84938700  1.0
  Fe  Fe4  2  0.25000000  0.50000000  0.25000000  1.0
  As  As5  8  0.05515900  0.31104700  0.14400900  1.0
  As  As6  2  0.34424800  0.68849600  0.65575200  1.0
