# generated using pymatgen
data_Ba1.558Na0.442Fe4As4
_symmetry_space_group_name_H-M   Cmmm
_cell_length_a   5.45873200
_cell_length_b   5.46282100
_cell_length_c   6.96934908
_cell_angle_alpha   90.00000000
_cell_angle_beta   113.05560185
_cell_angle_gamma   90.00000000
_symmetry_Int_Tables_number   65
_chemical_formula_structural   Ba1.558Na0.442Fe4As4
_chemical_formula_sum   'Ba1.558 Na0.442 Fe4 As4'
_cell_volume   191.22642479
_cell_formula_units_Z   1
loop_
 _symmetry_equiv_pos_site_id
 _symmetry_equiv_pos_as_xyz
  1  'x, y, z'
  2  '-x, -y, -z'
  3  '-x, y, -z'
  4  'x, -y, z'
  5  'x-z, -y, -z'
  6  '-x+z, y, z'
  7  '-x+z, -y, z'
  8  'x-z, y, -z'
loop_
 _atom_site_type_symbol
 _atom_site_label
 _atom_site_symmetry_multiplicity
 _atom_site_fract_x
 _atom_site_fract_y
 _atom_site_fract_z
 _atom_site_occupancy
  Ba  Ba0  1  0.50000000  0.50000000  0.00000000  1.0
  Na  Na1  1  0.00000000  0.00000000  0.00000000
  0.44199999999999995
  Ba  Ba2  1  0.00000000  0.00000000  0.00000000  0.558
  Fe  Fe3  4  0.00000000  0.24955600  0.50000000  1.0
  As  As4  2  0.14979100  0.50000000  0.29958200  1.0
  As  As5  2  0.35023800  0.00000000  0.70047600  1.0
