# generated using pymatgen
data_Ba2.5Na2.5Fe10As10
_symmetry_space_group_name_H-M   I4/m
_cell_length_a   8.74004200
_cell_length_b   8.91724361
_cell_length_c   8.74004200
_cell_angle_alpha   119.34479502
_cell_angle_beta   90.00000000
_cell_angle_gamma   119.34479502
_symmetry_Int_Tables_number   87
_chemical_formula_structural   Ba2.5Na2.5Fe10As10
_chemical_formula_sum   'Ba2.5 Na2.5 Fe10 As10'
_cell_volume   491.04728094
_cell_formula_units_Z   1
loop_
 _symmetry_equiv_pos_site_id
 _symmetry_equiv_pos_as_xyz
  1  'x, y, z'
  2  '-x, -y, -z'
  3  'y-z, y, x'
  4  '-y+z, -y, -x'
  5  '-x+y, y, y-z'
  6  'x-y, -y, -y+z'
  7  'z, y, -x+y'
  8  '-z, -y, x-y'
loop_
 _atom_site_type_symbol
 _atom_site_label
 _atom_site_symmetry_multiplicity
 _atom_site_fract_x
 _atom_site_fract_y
 _atom_site_fract_z
 _atom_site_occupancy
  Ba  Ba0  4  0.19789100  0.00000000  0.39463100  0.625
  Na  Na1  4  0.19789100  0.00000000  0.39463100  0.375
  Na  Na2  1  0.00000000  0.00000000  0.00000000  1.0
  Fe  Fe3  8  0.04959700  0.50043200  0.35044400  1.0
  Fe  Fe4  2  0.25000000  0.50000000  0.75000000  1.0
  As  As5  8  0.05283900  0.30412800  0.45071300  1.0
  As  As6  2  0.34672800  0.69345600  0.34672800  1.0
