# generated using pymatgen
data_KBa3(FeAs)8
_symmetry_space_group_name_H-M   P-1
_cell_length_a   7.16214702
_cell_length_b   7.85870106
_cell_length_c   8.71998490
_cell_angle_alpha   115.67427555
_cell_angle_beta   97.22124646
_cell_angle_gamma   106.27394824
_symmetry_Int_Tables_number   2
_chemical_formula_structural   KBa3(FeAs)8
_chemical_formula_sum   'K1 Ba3 Fe8 As8'
_cell_volume   406.93629950
_cell_formula_units_Z   1
loop_
 _symmetry_equiv_pos_site_id
 _symmetry_equiv_pos_as_xyz
  1  'x, y, z'
  2  '-x, -y, -z'
loop_
 _atom_site_type_symbol
 _atom_site_label
 _atom_site_symmetry_multiplicity
 _atom_site_fract_x
 _atom_site_fract_y
 _atom_site_fract_z
 _atom_site_occupancy
  K  K0  1  0.00000000  0.00000000  0.00000000  1.0
  Ba  Ba1  2  0.00004475  0.75338538  0.50643983  1.0
  Ba  Ba2  1  0.00000000  0.50000000  0.00000000  1.0
  Fe  Fe3  2  0.49945948  0.81352182  0.37467079  1.0
  Fe  Fe4  2  0.49969059  0.31307392  0.37475631  1.0
  Fe  Fe5  2  0.49970149  0.43754449  0.12481702  1.0
  Fe  Fe6  2  0.49976096  0.93766358  0.12478944  1.0
  As  As7  2  0.30052453  0.73604456  0.82364340  1.0
  As  As8  2  0.30095636  0.23726081  0.82385274  1.0
  As  As9  2  0.30211787  0.98874933  0.32758739  1.0
  As  As10  2  0.30279952  0.49040384  0.32707599  1.0
