# generated using pymatgen
data_Cu1.5As3
_symmetry_space_group_name_H-M   P-3m1
_cell_length_a   4.05733236
_cell_length_b   4.05733286
_cell_length_c   6.09021200
_cell_angle_alpha   90.00000000
_cell_angle_beta   90.00000000
_cell_angle_gamma   119.99999364
_symmetry_Int_Tables_number   164
_chemical_formula_structural   Cu1.5As3
_chemical_formula_sum   'Cu1.5 As3'
_cell_volume   86.82490030
_cell_formula_units_Z   1
loop_
 _symmetry_equiv_pos_site_id
 _symmetry_equiv_pos_as_xyz
  1  'x, y, z'
  2  '-x, -y, -z'
  3  '-y, x-y, z'
  4  'y, -x+y, -z'
  5  '-x+y, -x, z'
  6  'x-y, x, -z'
  7  'y, x, -z'
  8  '-y, -x, z'
  9  'x-y, -y, -z'
  10  '-x+y, y, z'
  11  '-x, -x+y, -z'
  12  'x, x-y, z'
loop_
 _atom_site_type_symbol
 _atom_site_label
 _atom_site_symmetry_multiplicity
 _atom_site_fract_x
 _atom_site_fract_y
 _atom_site_fract_z
 _atom_site_occupancy
  Cu  Cu0  2  0.33333333  0.66666667  0.78303100  0.75
  As  As1  2  0.33333333  0.66666667  0.35066200  1.0
  As  As2  1  0.00000000  0.00000000  0.00000000  1.0
