# generated using pymatgen
data_CuAs2
_symmetry_space_group_name_H-M   I4/mcm
_cell_length_a   5.10578225
_cell_length_b   5.10578206
_cell_length_c   5.10578174
_cell_angle_alpha   105.59153548
_cell_angle_beta   105.59155071
_cell_angle_gamma   117.54497415
_symmetry_Int_Tables_number   140
_chemical_formula_structural   CuAs2
_chemical_formula_sum   'Cu2 As4'
_cell_volume   100.91664961
_cell_formula_units_Z   2
loop_
 _symmetry_equiv_pos_site_id
 _symmetry_equiv_pos_as_xyz
  1  'x, y, z'
  2  '-x, -y, -z'
  3  'x-z, x, x-y'
  4  '-x+z, -x, -x+y'
  5  'y-z, x-z, -z'
  6  '-y+z, -x+z, z'
  7  'y, y-z, -x+y'
  8  '-y, -y+z, x-y'
  9  '-y+z+1/2, -y+1/2, x-y'
  10  'y-z+1/2, y+1/2, -x+y'
  11  '-y+1/2, -x+1/2, -z'
  12  'y+1/2, x+1/2, z'
  13  '-x+1/2, -x+z+1/2, -x+y'
  14  'x+1/2, x-z+1/2, x-y'
  15  '-x+z+1/2, -y+z+1/2, z'
  16  'x-z+1/2, y-z+1/2, -z'
loop_
 _atom_site_type_symbol
 _atom_site_label
 _atom_site_symmetry_multiplicity
 _atom_site_fract_x
 _atom_site_fract_y
 _atom_site_fract_z
 _atom_site_occupancy
  Cu  Cu0  2  0.25000000  0.25000000  0.00000000  1.0
  As  As1  4  0.14782600  0.64782600  0.79565200  1.0
