# generated using pymatgen
data_CoAs2
_symmetry_space_group_name_H-M   P2_1/c
_cell_length_a   5.89121300
_cell_length_b   5.93826500
_cell_length_c   5.99373573
_cell_angle_alpha   116.00270357
_cell_angle_beta   90.00000000
_cell_angle_gamma   90.00000000
_symmetry_Int_Tables_number   14
_chemical_formula_structural   CoAs2
_chemical_formula_sum   'Co4 As8'
_cell_volume   188.45691674
_cell_formula_units_Z   4
loop_
 _symmetry_equiv_pos_site_id
 _symmetry_equiv_pos_as_xyz
  1  'x, y, z'
  2  '-x, -y, -z'
  3  'x+1/2, -y, -z+1/2'
  4  '-x+1/2, y, z+1/2'
loop_
 _atom_site_type_symbol
 _atom_site_label
 _atom_site_symmetry_multiplicity
 _atom_site_fract_x
 _atom_site_fract_y
 _atom_site_fract_z
 _atom_site_occupancy
  Co  Co0  4  0.00049500  0.72817600  0.71443700  1.0
  As  As1  4  0.13397300  0.15339900  0.86789200  1.0
  As  As2  4  0.13609500  0.65692800  0.32543000  1.0
