# generated using pymatgen
data_CuAs2
_symmetry_space_group_name_H-M   I4/mmm
_cell_length_a   4.26676400
_cell_length_b   4.26676400
_cell_length_c   4.27811198
_cell_angle_alpha   119.91229249
_cell_angle_beta   119.91229249
_cell_angle_gamma   90.00000000
_symmetry_Int_Tables_number   139
_chemical_formula_structural   CuAs2
_chemical_formula_sum   'Cu1 As2'
_cell_volume   55.21814658
_cell_formula_units_Z   1
loop_
 _symmetry_equiv_pos_site_id
 _symmetry_equiv_pos_as_xyz
  1  'x, y, z'
  2  '-x+1/2, -y+1/2, -z'
  3  '-y+z+1/2, x+1/2, z'
  4  'y-z, -x, -z'
  5  '-x+z, -y+z, z'
  6  'x-z+1/2, y-z+1/2, -z'
  7  'y+1/2, -x+z+1/2, z'
  8  '-y, x-z, -z'
  9  'x-z+1/2, -y+1/2, -z'
  10  '-x+z, y, z'
  11  '-y, -x, -z'
  12  'y+1/2, x+1/2, z'
  13  '-x+1/2, y-z+1/2, -z'
  14  'x, -y+z, z'
  15  'y-z, x-z, -z'
  16  '-y+z+1/2, -x+z+1/2, z'
loop_
 _atom_site_type_symbol
 _atom_site_label
 _atom_site_symmetry_multiplicity
 _atom_site_fract_x
 _atom_site_fract_y
 _atom_site_fract_z
 _atom_site_occupancy
  Cu  Cu0  1  0.75000000  0.25000000  0.50000000  1.0
  As  As1  2  0.00000000  0.00000000  0.00000000  1.0
