# generated using pymatgen
data_Sr2ScFeAsO3
_symmetry_space_group_name_H-M   P4/nmm
_cell_length_a   4.12717100
_cell_length_b   4.12717100
_cell_length_c   16.33529600
_cell_angle_alpha   90.00000000
_cell_angle_beta   90.00000000
_cell_angle_gamma   90.00000000
_symmetry_Int_Tables_number   129
_chemical_formula_structural   Sr2ScFeAsO3
_chemical_formula_sum   'Sr4 Sc2 Fe2 As2 O6'
_cell_volume   278.24792540
_cell_formula_units_Z   2
loop_
 _symmetry_equiv_pos_site_id
 _symmetry_equiv_pos_as_xyz
  1  'x, y, z'
  2  '-y+1/2, x, z'
  3  '-x+1/2, -y+1/2, z'
  4  'y, -x+1/2, z'
  5  'x+1/2, -y, -z'
  6  '-y, -x, -z'
  7  '-x, y+1/2, -z'
  8  'y+1/2, x+1/2, -z'
  9  '-x, -y, -z'
  10  'y+1/2, -x, -z'
  11  'x+1/2, y+1/2, -z'
  12  '-y, x+1/2, -z'
  13  '-x+1/2, y, z'
  14  'y, x, z'
  15  'x, -y+1/2, z'
  16  '-y+1/2, -x+1/2, z'
loop_
 _atom_site_type_symbol
 _atom_site_label
 _atom_site_symmetry_multiplicity
 _atom_site_fract_x
 _atom_site_fract_y
 _atom_site_fract_z
 _atom_site_occupancy
  Sr  Sr0  2  0.25000000  0.25000000  0.58345400  1.0
  Sr  Sr1  2  0.25000000  0.25000000  0.80190300  1.0
  Sc  Sc2  2  0.25000000  0.25000000  0.31243100  1.0
  Fe  Fe3  2  0.25000000  0.75000000  0.00000000  1.0
  As  As4  2  0.25000000  0.25000000  0.09856100  1.0
  O  O5  4  0.25000000  0.75000000  0.29317100  1.0
  O  O6  2  0.25000000  0.25000000  0.43498700  1.0
