# generated using pymatgen
data_Sr2Ti2As2OF2
_symmetry_space_group_name_H-M   I4/mmm
_cell_length_a   4.05970400
_cell_length_b   4.05970400
_cell_length_c   10.27223323
_cell_angle_alpha   101.39698262
_cell_angle_beta   101.39698262
_cell_angle_gamma   89.99999999
_symmetry_Int_Tables_number   139
_chemical_formula_structural   Sr2Ti2As2OF2
_chemical_formula_sum   'Sr2 Ti2 As2 O1 F2'
_cell_volume   162.55354733
_cell_formula_units_Z   1
loop_
 _symmetry_equiv_pos_site_id
 _symmetry_equiv_pos_as_xyz
  1  'x, y, z'
  2  '-x, -y, -z'
  3  '-y+z, x, z'
  4  'y-z, -x, -z'
  5  '-x+z, -y+z, z'
  6  'x-z, y-z, -z'
  7  'y, -x+z, z'
  8  '-y, x-z, -z'
  9  'x-z, -y, -z'
  10  '-x+z, y, z'
  11  '-y, -x, -z'
  12  'y, x, z'
  13  '-x, y-z, -z'
  14  'x, -y+z, z'
  15  'y-z, x-z, -z'
  16  '-y+z, -x+z, z'
loop_
 _atom_site_type_symbol
 _atom_site_label
 _atom_site_symmetry_multiplicity
 _atom_site_fract_x
 _atom_site_fract_y
 _atom_site_fract_z
 _atom_site_occupancy
  Sr  Sr0  2  0.32329700  0.32329700  0.64659400  1.0
  Ti  Ti1  2  0.00000000  0.50000000  0.00000000  1.0
  As  As2  2  0.09149500  0.09149500  0.18299000  1.0
  O  O3  1  0.50000000  0.50000000  0.00000000  1.0
  F  F4  2  0.25000000  0.75000000  0.50000000  1.0
