# generated using pymatgen
data_Sr3Sc2Fe2As2O5
_symmetry_space_group_name_H-M   I4/mmm
_cell_length_a   4.14926200
_cell_length_b   4.14926200
_cell_length_c   14.29465975
_cell_angle_alpha   98.34499780
_cell_angle_beta   98.34499779
_cell_angle_gamma   90.00000000
_symmetry_Int_Tables_number   139
_chemical_formula_structural   Sr3Sc2Fe2As2O5
_chemical_formula_sum   'Sr3 Sc2 Fe2 As2 O5'
_cell_volume   240.86263203
_cell_formula_units_Z   1
loop_
 _symmetry_equiv_pos_site_id
 _symmetry_equiv_pos_as_xyz
  1  'x, y, z'
  2  '-x, -y, -z'
  3  '-y+z, x, z'
  4  'y-z, -x, -z'
  5  '-x+z, -y+z, z'
  6  'x-z, y-z, -z'
  7  'y, -x+z, z'
  8  '-y, x-z, -z'
  9  'x-z, -y, -z'
  10  '-x+z, y, z'
  11  '-y, -x, -z'
  12  'y, x, z'
  13  '-x, y-z, -z'
  14  'x, -y+z, z'
  15  'y-z, x-z, -z'
  16  '-y+z, -x+z, z'
loop_
 _atom_site_type_symbol
 _atom_site_label
 _atom_site_symmetry_multiplicity
 _atom_site_fract_x
 _atom_site_fract_y
 _atom_site_fract_z
 _atom_site_occupancy
  Sr  Sr0  2  0.36621400  0.36621400  0.73242800  1.0
  Sr  Sr1  1  0.50000000  0.50000000  0.00000000  1.0
  Sc  Sc2  2  0.07077600  0.07077700  0.14155300  1.0
  Fe  Fe3  2  0.25000000  0.75000000  0.50000000  1.0
  As  As4  2  0.19259900  0.19259900  0.38519800  1.0
  O  O5  4  0.07975600  0.57975600  0.15951200  1.0
  O  O6  1  0.00000000  0.00000000  0.00000000  1.0
