# generated using pymatgen
data_MoAs2
_symmetry_space_group_name_H-M   C2/m
_cell_length_a   3.33115000
_cell_length_b   4.87215288
_cell_length_c   7.03901531
_cell_angle_alpha   79.30066928
_cell_angle_beta   76.31283773
_cell_angle_gamma   70.01000417
_symmetry_Int_Tables_number   12
_chemical_formula_structural   MoAs2
_chemical_formula_sum   'Mo2 As4'
_cell_volume   103.62179415
_cell_formula_units_Z   2
loop_
 _symmetry_equiv_pos_site_id
 _symmetry_equiv_pos_as_xyz
  1  'x, y, z'
  2  '-x, -y, -z'
  3  'x+y+z, -y, -z'
  4  '-x-y-z, y, z'
loop_
 _atom_site_type_symbol
 _atom_site_label
 _atom_site_symmetry_multiplicity
 _atom_site_fract_x
 _atom_site_fract_y
 _atom_site_fract_z
 _atom_site_occupancy
  Mo  Mo0  2  0.34664700  0.60523300  0.70147300  1.0
  As  As1  2  0.09753400  0.19864000  0.60629200  1.0
  As  As2  2  0.35368700  0.26016700  0.03245900  1.0
