# generated using pymatgen
data_NbAs2
_symmetry_space_group_name_H-M   C2/m
_cell_length_a   3.41778200
_cell_length_b   5.02539268
_cell_length_c   7.13142961
_cell_angle_alpha   78.78629631
_cell_angle_beta   76.13540784
_cell_angle_gamma   70.12000423
_symmetry_Int_Tables_number   12
_chemical_formula_structural   NbAs2
_chemical_formula_sum   'Nb2 As4'
_cell_volume   110.97227015
_cell_formula_units_Z   2
loop_
 _symmetry_equiv_pos_site_id
 _symmetry_equiv_pos_as_xyz
  1  'x, y, z'
  2  '-x, -y, -z'
  3  'x+y+z, -y, -z'
  4  '-x-y-z, y, z'
loop_
 _atom_site_type_symbol
 _atom_site_label
 _atom_site_symmetry_multiplicity
 _atom_site_fract_x
 _atom_site_fract_y
 _atom_site_fract_z
 _atom_site_occupancy
  Nb  Nb0  2  0.15693700  0.88218200  0.80394400  1.0
  As  As1  2  0.14145200  0.24566600  0.47143000  1.0
  As  As2  2  0.40506100  0.29665500  0.89322300  1.0
