# generated using pymatgen
data_Sr(AsPt)2
_symmetry_space_group_name_H-M   P2_1/c
_cell_length_a   4.52563800
_cell_length_b   8.99836200
_cell_length_c   10.09417957
_cell_angle_alpha   90.79372867
_cell_angle_beta   90.00000000
_cell_angle_gamma   90.00000000
_symmetry_Int_Tables_number   14
_chemical_formula_structural   Sr(AsPt)2
_chemical_formula_sum   'Sr4 As8 Pt8'
_cell_volume   411.02915209
_cell_formula_units_Z   4
loop_
 _symmetry_equiv_pos_site_id
 _symmetry_equiv_pos_as_xyz
  1  'x, y, z'
  2  '-x, -y, -z'
  3  'x+1/2, -y+1/2, -z'
  4  '-x+1/2, y+1/2, z'
loop_
 _atom_site_type_symbol
 _atom_site_label
 _atom_site_symmetry_multiplicity
 _atom_site_fract_x
 _atom_site_fract_y
 _atom_site_fract_z
 _atom_site_occupancy
  Sr  Sr0  4  0.23959200  0.37372500  0.75146800  1.0
  As  As1  4  0.20539600  0.38630300  0.37140700  1.0
  As  As2  4  0.24564700  0.12358700  0.00058500  1.0
  Pt  Pt3  4  0.17726800  0.14131500  0.49784500  1.0
  Pt  Pt4  4  0.24661100  0.37426400  0.12039000  1.0
