# generated using pymatgen
data_Te3As2
_symmetry_space_group_name_H-M   R-3m
_cell_length_a   4.08947195
_cell_length_b   4.08947195
_cell_length_c   10.37431532
_cell_angle_alpha   78.63281157
_cell_angle_beta   78.63281157
_cell_angle_gamma   60.00000088
_symmetry_Int_Tables_number   166
_chemical_formula_structural   Te3As2
_chemical_formula_sum   'Te3 As2'
_cell_volume   146.31050081
_cell_formula_units_Z   1
loop_
 _symmetry_equiv_pos_site_id
 _symmetry_equiv_pos_as_xyz
  1  'x, y, z'
  2  '-x, -y, -z'
  3  '-x-y-z, x, z'
  4  'x+y+z, -x, -z'
  5  'y, -x-y-z, z'
  6  '-y, x+y+z, -z'
  7  '-x, x+y+z, -z'
  8  'x, -x-y-z, z'
  9  'x+y+z, -y, -z'
  10  '-x-y-z, y, z'
  11  '-y, -x, -z'
  12  'y, x, z'
loop_
 _atom_site_type_symbol
 _atom_site_label
 _atom_site_symmetry_multiplicity
 _atom_site_fract_x
 _atom_site_fract_y
 _atom_site_fract_z
 _atom_site_occupancy
  Te  Te0  2  0.21856200  0.21856200  0.34431400  1.0
  Te  Te1  1  0.00000000  0.00000000  0.00000000  1.0
  As  As2  2  0.39510800  0.39510800  0.81467600  1.0
