# generated using pymatgen
data_Te3As2
_symmetry_space_group_name_H-M   C2/m
_cell_length_a   4.06922400
_cell_length_b   7.77178496
_cell_length_c   10.14114142
_cell_angle_alpha   95.38837020
_cell_angle_beta   90.00000000
_cell_angle_gamma   105.17657912
_symmetry_Int_Tables_number   12
_chemical_formula_structural   Te3As2
_chemical_formula_sum   'Te6 As4'
_cell_volume   308.06089028
_cell_formula_units_Z   2
loop_
 _symmetry_equiv_pos_site_id
 _symmetry_equiv_pos_as_xyz
  1  'x, y, z'
  2  '-x, -y, -z'
  3  'x-y, -y, -z'
  4  '-x+y, y, z'
loop_
 _atom_site_type_symbol
 _atom_site_label
 _atom_site_symmetry_multiplicity
 _atom_site_fract_x
 _atom_site_fract_y
 _atom_site_fract_z
 _atom_site_occupancy
  Te  Te0  2  0.04233800  0.08467600  0.28785400  1.0
  Te  Te1  2  0.21791700  0.43583400  0.66440600  1.0
  Te  Te2  2  0.36979700  0.73959400  0.03067200  1.0
  As  As3  2  0.20525900  0.41051800  0.14089900  1.0
  As  As4  2  0.37463100  0.74926200  0.56049500  1.0
