# generated using pymatgen
data_TiAs2
_symmetry_space_group_name_H-M   Pnnm
_cell_length_a   3.53591100
_cell_length_b   8.57492100
_cell_length_c   15.35702100
_cell_angle_alpha   90.00000000
_cell_angle_beta   90.00000000
_cell_angle_gamma   90.00000000
_symmetry_Int_Tables_number   58
_chemical_formula_structural   TiAs2
_chemical_formula_sum   'Ti8 As16'
_cell_volume   465.62729527
_cell_formula_units_Z   8
loop_
 _symmetry_equiv_pos_site_id
 _symmetry_equiv_pos_as_xyz
  1  'x, y, z'
  2  '-x, -y, -z'
  3  'x, -y, -z'
  4  '-x, y, z'
  5  '-x+1/2, y+1/2, -z+1/2'
  6  'x+1/2, -y+1/2, z+1/2'
  7  '-x+1/2, -y+1/2, z+1/2'
  8  'x+1/2, y+1/2, -z+1/2'
loop_
 _atom_site_type_symbol
 _atom_site_label
 _atom_site_symmetry_multiplicity
 _atom_site_fract_x
 _atom_site_fract_y
 _atom_site_fract_z
 _atom_site_occupancy
  Ti  Ti0  4  0.00000000  0.08390600  0.78382200  1.0
  Ti  Ti1  4  0.00000000  0.34161300  0.98173300  1.0
  As  As2  4  0.00000000  0.03688500  0.60024200  1.0
  As  As3  4  0.00000000  0.10235000  0.08103800  1.0
  As  As4  4  0.00000000  0.21755600  0.23338800  1.0
  As  As5  4  0.00000000  0.32758400  0.39871600  1.0
