# generated using pymatgen
data_VAs2
_symmetry_space_group_name_H-M   C2/m
_cell_length_a   3.29442200
_cell_length_b   4.84940204
_cell_length_c   6.77531748
_cell_angle_alpha   78.61885927
_cell_angle_beta   75.92927774
_cell_angle_gamma   70.14304650
_symmetry_Int_Tables_number   12
_chemical_formula_structural   VAs2
_chemical_formula_sum   'V2 As4'
_cell_volume   97.96775431
_cell_formula_units_Z   2
loop_
 _symmetry_equiv_pos_site_id
 _symmetry_equiv_pos_as_xyz
  1  'x, y, z'
  2  '-x, -y, -z'
  3  'x+y+z, -y, -z'
  4  '-x-y-z, y, z'
loop_
 _atom_site_type_symbol
 _atom_site_label
 _atom_site_symmetry_multiplicity
 _atom_site_fract_x
 _atom_site_fract_y
 _atom_site_fract_z
 _atom_site_occupancy
  V  V0  2  0.15375600  0.88597500  0.80651300  1.0
  As  As1  2  0.14810800  0.23850100  0.46528300  1.0
  As  As2  2  0.40403700  0.29872600  0.89320000  1.0
