# generated using pymatgen
data_ZrAs2
_symmetry_space_group_name_H-M   Pnma
_cell_length_a   3.72672300
_cell_length_b   6.86200800
_cell_length_c   9.14417400
_cell_angle_alpha   90.00000000
_cell_angle_beta   90.00000000
_cell_angle_gamma   90.00000000
_symmetry_Int_Tables_number   62
_chemical_formula_structural   ZrAs2
_chemical_formula_sum   'Zr4 As8'
_cell_volume   233.84216066
_cell_formula_units_Z   4
loop_
 _symmetry_equiv_pos_site_id
 _symmetry_equiv_pos_as_xyz
  1  'x, y, z'
  2  '-x, -y, -z'
  3  '-x, -y+1/2, z+1/2'
  4  'x, y+1/2, -z+1/2'
  5  '-x+1/2, y+1/2, -z+1/2'
  6  'x+1/2, -y+1/2, z+1/2'
  7  'x+1/2, -y, -z'
  8  '-x+1/2, y, z'
loop_
 _atom_site_type_symbol
 _atom_site_label
 _atom_site_symmetry_multiplicity
 _atom_site_fract_x
 _atom_site_fract_y
 _atom_site_fract_z
 _atom_site_occupancy
  Zr  Zr0  4  0.25000000  0.27267700  0.33813100  1.0
  As  As1  4  0.25000000  0.37967400  0.04225500  1.0
  As  As2  4  0.25000000  0.41699300  0.64737500  1.0
