# generated using pymatgen
data_Mo2As3
_symmetry_space_group_name_H-M   C2/m
_cell_length_a   3.26544200
_cell_length_b   6.94340828
_cell_length_c   8.26844632
_cell_angle_alpha   78.94157558
_cell_angle_beta   78.61129666
_cell_angle_gamma   76.39971724
_symmetry_Int_Tables_number   12
_chemical_formula_structural   Mo2As3
_chemical_formula_sum   'Mo4 As6'
_cell_volume   176.53695618
_cell_formula_units_Z   2
loop_
 _symmetry_equiv_pos_site_id
 _symmetry_equiv_pos_as_xyz
  1  'x, y, z'
  2  '-x, -y, -z'
  3  'x+y+z, -y, -z'
  4  '-x-y-z, y, z'
loop_
 _atom_site_type_symbol
 _atom_site_label
 _atom_site_symmetry_multiplicity
 _atom_site_fract_x
 _atom_site_fract_y
 _atom_site_fract_z
 _atom_site_occupancy
  Mo  Mo0  2  0.24803100  0.87561100  0.62832700  1.0
  Mo  Mo1  2  0.35052700  0.43375700  0.86518900  1.0
  As  As2  2  0.10463500  0.41954000  0.37119000  1.0
  As  As3  2  0.12726800  0.79248900  0.95297500  1.0
  As  As4  2  0.41461000  0.85637300  0.31440700  1.0
