# generated using pymatgen
data_As3W2
_symmetry_space_group_name_H-M   C2/m
_cell_length_a   3.30819800
_cell_length_b   6.94875089
_cell_length_c   8.22760157
_cell_angle_alpha   78.97329774
_cell_angle_beta   78.40206176
_cell_angle_gamma   76.22895592
_symmetry_Int_Tables_number   12
_chemical_formula_structural   As3W2
_chemical_formula_sum   'As6 W4'
_cell_volume   177.89147463
_cell_formula_units_Z   2
loop_
 _symmetry_equiv_pos_site_id
 _symmetry_equiv_pos_as_xyz
  1  'x, y, z'
  2  '-x, -y, -z'
  3  'x+y+z, -y, -z'
  4  '-x-y-z, y, z'
loop_
 _atom_site_type_symbol
 _atom_site_label
 _atom_site_symmetry_multiplicity
 _atom_site_fract_x
 _atom_site_fract_y
 _atom_site_fract_z
 _atom_site_occupancy
  As  As0  2  0.10607900  0.41854200  0.36930000  1.0
  As  As1  2  0.12492700  0.79694500  0.95320100  1.0
  As  As2  2  0.41603000  0.85468700  0.31325300  1.0
  W  W3  2  0.24723600  0.87790100  0.62762700  1.0
  W  W4  2  0.34726900  0.43431900  0.87114300  1.0
