# generated using pymatgen
data_Ba2Ti2Fe2As4O
_symmetry_space_group_name_H-M   I4/mmm
_cell_length_a   4.08991000
_cell_length_b   4.08991000
_cell_length_c   14.72308679
_cell_angle_alpha   97.98387772
_cell_angle_beta   97.98387773
_cell_angle_gamma   90.00000000
_symmetry_Int_Tables_number   139
_chemical_formula_structural   Ba2Ti2Fe2As4O
_chemical_formula_sum   'Ba2 Ti2 Fe2 As4 O1'
_cell_volume   241.48057301
_cell_formula_units_Z   1
loop_
 _symmetry_equiv_pos_site_id
 _symmetry_equiv_pos_as_xyz
  1  'x, y, z'
  2  '-x, -y, -z'
  3  '-y+z, x, z'
  4  'y-z, -x, -z'
  5  '-x+z, -y+z, z'
  6  'x-z, y-z, -z'
  7  'y, -x+z, z'
  8  '-y, x-z, -z'
  9  'x-z, -y, -z'
  10  '-x+z, y, z'
  11  '-y, -x, -z'
  12  'y, x, z'
  13  '-x, y-z, -z'
  14  'x, -y+z, z'
  15  'y-z, x-z, -z'
  16  '-y+z, -x+z, z'
loop_
 _atom_site_type_symbol
 _atom_site_label
 _atom_site_symmetry_multiplicity
 _atom_site_fract_x
 _atom_site_fract_y
 _atom_site_fract_z
 _atom_site_occupancy
  Ba  Ba0  2  0.12825900  0.12825900  0.25651800  1.0
  Ti  Ti1  2  0.00000000  0.50000000  0.00000000  1.0
  Fe  Fe2  2  0.25000000  0.75000000  0.50000000  1.0
  As  As3  2  0.30638200  0.30638200  0.61276400  1.0
  As  As4  2  0.43824000  0.43824000  0.87648000  1.0
  O  O5  1  0.00000000  0.00000000  0.00000000  1.0
