# generated using pymatgen
data_Mo5As4
_symmetry_space_group_name_H-M   I4/m
_cell_length_a   3.17452400
_cell_length_b   6.89612018
_cell_length_c   6.89612018
_cell_angle_alpha   86.96321824
_cell_angle_beta   76.69307296
_cell_angle_gamma   76.69307297
_symmetry_Int_Tables_number   87
_chemical_formula_structural   Mo5As4
_chemical_formula_sum   'Mo5 As4'
_cell_volume   142.97126875
_cell_formula_units_Z   1
loop_
 _symmetry_equiv_pos_site_id
 _symmetry_equiv_pos_as_xyz
  1  'x, y, z'
  2  '-x, -y, -z'
  3  'x+y, z, -y'
  4  '-x-y, -z, y'
  5  'x+y+z, -y, -z'
  6  '-x-y-z, y, z'
  7  'x+z, -z, y'
  8  '-x-z, z, -y'
loop_
 _atom_site_type_symbol
 _atom_site_label
 _atom_site_symmetry_multiplicity
 _atom_site_fract_x
 _atom_site_fract_y
 _atom_site_fract_z
 _atom_site_occupancy
  Mo  Mo0  4  0.05032100  0.60752500  0.29183300  1.0
  Mo  Mo1  1  0.00000000  0.00000000  0.00000000  1.0
  As  As2  4  0.32507900  0.31639000  0.03345100  1.0
