# generated using pymatgen
data_CuAu
_symmetry_space_group_name_H-M   Imma
_cell_length_a   3.66287600
_cell_length_b   4.04627000
_cell_length_c   20.43527899
_cell_angle_alpha   95.68170836
_cell_angle_beta   95.14182601
_cell_angle_gamma   89.99999998
_symmetry_Int_Tables_number   74
_chemical_formula_structural   CuAu
_chemical_formula_sum   'Cu10 Au10'
_cell_volume   300.15821006
_cell_formula_units_Z   10
loop_
 _symmetry_equiv_pos_site_id
 _symmetry_equiv_pos_as_xyz
  1  'x, y, z'
  2  '-x, -y, -z'
  3  '-x+z, -y+z+1/2, z'
  4  'x-z, y-z+1/2, -z'
  5  'x-z, -y, -z'
  6  '-x+z, y, z'
  7  '-x, y-z+1/2, -z'
  8  'x, -y+z+1/2, z'
loop_
 _atom_site_type_symbol
 _atom_site_label
 _atom_site_symmetry_multiplicity
 _atom_site_fract_x
 _atom_site_fract_y
 _atom_site_fract_z
 _atom_site_occupancy
  Cu  Cu0  2  0.02509400  0.77509400  0.05018800  1.0
  Cu  Cu1  2  0.07448500  0.32448500  0.14897000  1.0
  Cu  Cu2  2  0.12483200  0.87483200  0.24966400  1.0
  Cu  Cu3  2  0.17488500  0.42488500  0.34977000  1.0
  Cu  Cu4  2  0.22693000  0.97693000  0.45386000  1.0
  Au  Au5  2  0.27668500  0.52668500  0.55337000  1.0
  Au  Au6  2  0.32543200  0.07543200  0.65086400  1.0
  Au  Au7  2  0.37586100  0.62586100  0.75172200  1.0
  Au  Au8  2  0.42520500  0.17520500  0.85041000  1.0
  Au  Au9  2  0.47539400  0.72539400  0.95078800  1.0
