# generated using pymatgen
data_Tl4.38Au1.62
_symmetry_space_group_name_H-M   I4/mcm
_cell_length_a   5.49838800
_cell_length_b   6.17479981
_cell_length_c   6.17479981
_cell_angle_alpha   78.56664331
_cell_angle_beta   63.56207056
_cell_angle_gamma   63.56207056
_symmetry_Int_Tables_number   140
_chemical_formula_structural   Tl4.38Au1.62
_chemical_formula_sum   'Tl4.38 Au1.62'
_cell_volume   168.08618878
_cell_formula_units_Z   1
loop_
 _symmetry_equiv_pos_site_id
 _symmetry_equiv_pos_as_xyz
  1  'x, y, z'
  2  '-x, -y, -z'
  3  'x+y, z, -y'
  4  '-x-y, -z, y'
  5  'x+y+z, -y, -z'
  6  '-x-y-z, y, z'
  7  'x+z, -z, y'
  8  '-x-z, z, -y'
  9  '-x-y-z+1/2, z, y'
  10  'x+y+z+1/2, -z, -y'
  11  '-x-z+1/2, -y, z'
  12  'x+z+1/2, y, -z'
  13  '-x+1/2, -z, -y'
  14  'x+1/2, z, y'
  15  '-x-y+1/2, y, -z'
  16  'x+y+1/2, -y, z'
loop_
 _atom_site_type_symbol
 _atom_site_label
 _atom_site_symmetry_multiplicity
 _atom_site_fract_x
 _atom_site_fract_y
 _atom_site_fract_z
 _atom_site_occupancy
  Tl  Tl0  4  0.15224000  0.50000000  0.19552000  1.0
  Au  Au1  2  0.00000000  0.00000000  0.00000000  0.81
  Tl  Tl2  2  0.00000000  0.00000000  0.00000000  0.19
