# generated using pymatgen
data_Ga8Pd0.08Au3.92
_symmetry_space_group_name_H-M   Pnma
_cell_length_a   3.64901400
_cell_length_b   7.28267600
_cell_length_c   8.45403000
_cell_angle_alpha   90.00000000
_cell_angle_beta   90.00000000
_cell_angle_gamma   90.00000000
_symmetry_Int_Tables_number   62
_chemical_formula_structural   Ga8Pd0.08Au3.92
_chemical_formula_sum   'Ga8 Pd0.08 Au3.92'
_cell_volume   224.66235304
_cell_formula_units_Z   1
loop_
 _symmetry_equiv_pos_site_id
 _symmetry_equiv_pos_as_xyz
  1  'x, y, z'
  2  '-x, -y, -z'
  3  '-x, -y+1/2, z+1/2'
  4  'x, y+1/2, -z+1/2'
  5  '-x+1/2, y+1/2, -z+1/2'
  6  'x+1/2, -y+1/2, z+1/2'
  7  'x+1/2, -y, -z'
  8  '-x+1/2, y, z'
loop_
 _atom_site_type_symbol
 _atom_site_label
 _atom_site_symmetry_multiplicity
 _atom_site_fract_x
 _atom_site_fract_y
 _atom_site_fract_z
 _atom_site_occupancy
  Ga  Ga0  4  0.25000000  0.37551800  0.05960400  1.0
  Ga  Ga1  4  0.25000000  0.44610700  0.64170400  1.0
  Au  Au2  4  0.25000000  0.25112300  0.34752700  0.98
  Pd  Pd3  4  0.25000000  0.25112300  0.34752700  0.02
