# generated using pymatgen
data_Ga8Pd0.048Au3.952
_symmetry_space_group_name_H-M   P2_1/c
_cell_length_a   3.34650900
_cell_length_b   7.00053132
_cell_length_c   9.73748600
_cell_angle_alpha   90.00000000
_cell_angle_beta   90.00000000
_cell_angle_gamma   103.59910972
_symmetry_Int_Tables_number   14
_chemical_formula_structural   Ga8Pd0.048Au3.952
_chemical_formula_sum   'Ga8 Pd0.048 Au3.952'
_cell_volume   221.72788709
_cell_formula_units_Z   1
loop_
 _symmetry_equiv_pos_site_id
 _symmetry_equiv_pos_as_xyz
  1  'x, y, z'
  2  '-x, -y, -z'
  3  '-x, -y+1/2, z+1/2'
  4  'x, y+1/2, -z+1/2'
loop_
 _atom_site_type_symbol
 _atom_site_label
 _atom_site_symmetry_multiplicity
 _atom_site_fract_x
 _atom_site_fract_y
 _atom_site_fract_z
 _atom_site_occupancy
  Ga  Ga0  4  0.00628100  0.40778600  0.12558600  1.0
  Ga  Ga1  4  0.35139200  0.06016100  0.12559000  1.0
  Au  Au2  4  0.31798200  0.26095700  0.87851900  0.988
  Pd  Pd3  4  0.31798200  0.26095700  0.87851900  0.012
