# generated using pymatgen
data_PdPb4Au
_symmetry_space_group_name_H-M   I422
_cell_length_a   5.82729000
_cell_length_b   5.88204267
_cell_length_c   5.88204267
_cell_angle_alpha   75.79645074
_cell_angle_beta   60.30744614
_cell_angle_gamma   60.30744614
_symmetry_Int_Tables_number   97
_chemical_formula_structural   PdPb4Au
_chemical_formula_sum   'Pd1 Pb4 Au1'
_cell_volume   152.14529034
_cell_formula_units_Z   1
loop_
 _symmetry_equiv_pos_site_id
 _symmetry_equiv_pos_as_xyz
  1  'x, y, z'
  2  'x+z, -z, y'
  3  'x+y+z, -y, -z'
  4  'x+y, z, -y'
  5  '-x-y-z, z, y'
  6  '-x-y, y, -z'
  7  '-x, -z, -y'
  8  '-x-z, -y, z'
loop_
 _atom_site_type_symbol
 _atom_site_label
 _atom_site_symmetry_multiplicity
 _atom_site_fract_x
 _atom_site_fract_y
 _atom_site_fract_z
 _atom_site_occupancy
  Pd  Pd0  1  0.50000000  0.00000000  0.00000000  1.0
  Pb  Pb1  4  0.09073300  0.50000000  0.81853400  1.0
  Au  Au2  1  0.00000000  0.00000000  0.00000000  1.0
