# generated using pymatgen
data_LaAu
_symmetry_space_group_name_H-M   Cmcm
_cell_length_a   3.99285200
_cell_length_b   4.86481500
_cell_length_c   6.13987919
_cell_angle_alpha   90.00000000
_cell_angle_beta   108.97509990
_cell_angle_gamma   90.00000000
_symmetry_Int_Tables_number   63
_chemical_formula_structural   LaAu
_chemical_formula_sum   'La2 Au2'
_cell_volume   112.78319047
_cell_formula_units_Z   2
loop_
 _symmetry_equiv_pos_site_id
 _symmetry_equiv_pos_as_xyz
  1  'x, y, z'
  2  '-x, -y, -z'
  3  '-x, y+1/2, -z'
  4  'x, -y+1/2, z'
  5  'x-z, -y, -z'
  6  '-x+z, y, z'
  7  '-x+z, -y+1/2, z'
  8  'x-z, y+1/2, -z'
loop_
 _atom_site_type_symbol
 _atom_site_label
 _atom_site_symmetry_multiplicity
 _atom_site_fract_x
 _atom_site_fract_y
 _atom_site_fract_z
 _atom_site_occupancy
  La  La0  2  0.13592500  0.25000000  0.27185000  1.0
  Au  Au1  2  0.41398600  0.25000000  0.82797200  1.0
