# generated using pymatgen
data_SrSi3Au
_symmetry_space_group_name_H-M   I4mm
_cell_length_a   4.46269400
_cell_length_b   4.46269400
_cell_length_c   5.86681499
_cell_angle_alpha   112.35434954
_cell_angle_beta   112.35434954
_cell_angle_gamma   90.00000000
_symmetry_Int_Tables_number   107
_chemical_formula_structural   SrSi3Au
_chemical_formula_sum   'Sr1 Si3 Au1'
_cell_volume   98.50029457
_cell_formula_units_Z   1
loop_
 _symmetry_equiv_pos_site_id
 _symmetry_equiv_pos_as_xyz
  1  'x, y, z'
  2  '-y+z, x, z'
  3  '-x+z, -y+z, z'
  4  'y, -x+z, z'
  5  '-x+z, y, z'
  6  'y, x, z'
  7  'x, -y+z, z'
  8  '-y+z, -x+z, z'
loop_
 _atom_site_type_symbol
 _atom_site_label
 _atom_site_symmetry_multiplicity
 _atom_site_fract_x
 _atom_site_fract_y
 _atom_site_fract_z
 _atom_site_occupancy
  Sr  Sr0  1  0.99921700  0.99921700  0.99843400  1.0
  Si  Si1  2  0.25652700  0.75652700  0.51305400  1.0
  Si  Si2  1  0.37674600  0.37674600  0.75349200  1.0
  Au  Au3  1  0.63348300  0.63348300  0.26696600  1.0
