# generated using pymatgen
data_Te2Au
_symmetry_space_group_name_H-M   Pma2
_cell_length_a   4.51262300
_cell_length_b   8.95260200
_cell_length_c   16.87999300
_cell_angle_alpha   90.00000000
_cell_angle_beta   90.00000000
_cell_angle_gamma   90.00000000
_symmetry_Int_Tables_number   28
_chemical_formula_structural   Te2Au
_chemical_formula_sum   'Te16 Au8'
_cell_volume   681.94695189
_cell_formula_units_Z   8
loop_
 _symmetry_equiv_pos_site_id
 _symmetry_equiv_pos_as_xyz
  1  'x, y, z'
  2  'x, -y, -z'
  3  'x, y, -z+1/2'
  4  'x, -y, z+1/2'
loop_
 _atom_site_type_symbol
 _atom_site_label
 _atom_site_symmetry_multiplicity
 _atom_site_fract_x
 _atom_site_fract_y
 _atom_site_fract_z
 _atom_site_occupancy
  Te  Te0  4  0.44768100  0.02968700  0.11963900  1.0
  Te  Te1  4  0.51975900  0.36116200  0.62901400  1.0
  Te  Te2  4  0.90682900  0.30291600  0.00646800  1.0
  Te  Te3  2  0.01900000  0.02079100  0.75000000  1.0
  Te  Te4  2  0.10629000  0.37526100  0.25000000  1.0
  Au  Au5  4  0.49346400  0.33319100  0.12599000  1.0
  Au  Au6  2  0.00964500  0.32477900  0.75000000  1.0
  Au  Au7  2  0.95959700  0.00000000  0.00000000  1.0
