# generated using pymatgen
data_Ta2Au
_symmetry_space_group_name_H-M   P4_2/mnm
_cell_length_a   5.23534200
_cell_length_b   10.11484800
_cell_length_c   10.11484800
_cell_angle_alpha   90.00000000
_cell_angle_beta   90.00000000
_cell_angle_gamma   90.00000000
_symmetry_Int_Tables_number   136
_chemical_formula_structural   Ta2Au
_chemical_formula_sum   'Ta20 Au10'
_cell_volume   535.62862565
_cell_formula_units_Z   10
loop_
 _symmetry_equiv_pos_site_id
 _symmetry_equiv_pos_as_xyz
  1  'x, y, z'
  2  '-x, -y, -z'
  3  'x+1/2, -z+1/2, y+1/2'
  4  '-x+1/2, z+1/2, -y+1/2'
  5  'x, -y, -z'
  6  '-x, y, z'
  7  'x+1/2, z+1/2, -y+1/2'
  8  '-x+1/2, -z+1/2, y+1/2'
  9  '-x+1/2, y+1/2, -z+1/2'
  10  'x+1/2, -y+1/2, z+1/2'
  11  '-x, -z, -y'
  12  'x, z, y'
  13  '-x+1/2, -y+1/2, z+1/2'
  14  'x+1/2, y+1/2, -z+1/2'
  15  '-x, z, y'
  16  'x, -z, -y'
loop_
 _atom_site_type_symbol
 _atom_site_label
 _atom_site_symmetry_multiplicity
 _atom_site_fract_x
 _atom_site_fract_y
 _atom_site_fract_z
 _atom_site_occupancy
  Ta  Ta0  8  0.00000000  0.12896700  0.46531700  1.0
  Ta  Ta1  8  0.24980000  0.18327200  0.18327200  1.0
  Ta  Ta2  4  0.00000000  0.39665500  0.39665500  1.0
  Au  Au3  8  0.00000000  0.06333400  0.73294100  1.0
  Au  Au4  2  0.00000000  0.00000000  0.00000000  1.0
