# generated using pymatgen
data_Nb3Au2
_symmetry_space_group_name_H-M   I4/mmm
_cell_length_a   3.42728800
_cell_length_b   3.42728800
_cell_length_c   8.08258623
_cell_angle_alpha   102.24056761
_cell_angle_beta   102.24056762
_cell_angle_gamma   90.00000000
_symmetry_Int_Tables_number   139
_chemical_formula_structural   Nb3Au2
_chemical_formula_sum   'Nb3 Au2'
_cell_volume   90.57233624
_cell_formula_units_Z   1
loop_
 _symmetry_equiv_pos_site_id
 _symmetry_equiv_pos_as_xyz
  1  'x, y, z'
  2  '-x, -y, -z'
  3  '-y+z, x, z'
  4  'y-z, -x, -z'
  5  '-x+z, -y+z, z'
  6  'x-z, y-z, -z'
  7  'y, -x+z, z'
  8  '-y, x-z, -z'
  9  'x-z, -y, -z'
  10  '-x+z, y, z'
  11  '-y, -x, -z'
  12  'y, x, z'
  13  '-x, y-z, -z'
  14  'x, -y+z, z'
  15  'y-z, x-z, -z'
  16  '-y+z, -x+z, z'
loop_
 _atom_site_type_symbol
 _atom_site_label
 _atom_site_symmetry_multiplicity
 _atom_site_fract_x
 _atom_site_fract_y
 _atom_site_fract_z
 _atom_site_occupancy
  Nb  Nb0  2  0.40088700  0.40088700  0.80177400  1.0
  Nb  Nb1  1  0.00000000  0.00000000  0.00000000  1.0
  Au  Au2  2  0.19916800  0.19916800  0.39833600  1.0
