# generated using pymatgen
data_SnAu5
_symmetry_space_group_name_H-M   R32
_cell_length_a   5.20375712
_cell_length_b   5.20375712
_cell_length_c   5.73343065
_cell_angle_alpha   63.01171470
_cell_angle_beta   63.01171470
_cell_angle_gamma   60.00001130
_symmetry_Int_Tables_number   155
_chemical_formula_structural   SnAu5
_chemical_formula_sum   'Sn1 Au5'
_cell_volume   114.51733842
_cell_formula_units_Z   1
loop_
 _symmetry_equiv_pos_site_id
 _symmetry_equiv_pos_as_xyz
  1  'x, y, z'
  2  '-x-y-z, x, z'
  3  'y, -x-y-z, z'
  4  '-x, x+y+z, -z'
  5  'x+y+z, -y, -z'
  6  '-y, -x, -z'
loop_
 _atom_site_type_symbol
 _atom_site_label
 _atom_site_symmetry_multiplicity
 _atom_site_fract_x
 _atom_site_fract_y
 _atom_site_fract_z
 _atom_site_occupancy
  Sn  Sn0  1  0.00000000  0.00000000  0.00000000  1.0
  Au  Au1  3  0.17246800  0.82753200  0.50000000  1.0
  Au  Au2  2  0.32995500  0.32995500  0.01013500  1.0
