# generated using pymatgen
data_Sr8Cu4B0.2C3.8O20
_symmetry_space_group_name_H-M   I4/m
_cell_length_a   7.86885200
_cell_length_b   7.86885200
_cell_length_c   9.45830827
_cell_angle_alpha   114.58077331
_cell_angle_beta   114.58077331
_cell_angle_gamma   90.00000000
_symmetry_Int_Tables_number   87
_chemical_formula_structural   Sr8Cu4B0.2C3.8O20
_chemical_formula_sum   'Sr8 Cu4 B0.2 C3.8 O20'
_cell_volume   473.58872370
_cell_formula_units_Z   1
loop_
 _symmetry_equiv_pos_site_id
 _symmetry_equiv_pos_as_xyz
  1  'x, y, z'
  2  '-x, -y, -z'
  3  '-y+z, x, z'
  4  'y-z, -x, -z'
  5  '-x+z, -y+z, z'
  6  'x-z, y-z, -z'
  7  'y, -x+z, z'
  8  '-y, x-z, -z'
loop_
 _atom_site_type_symbol
 _atom_site_label
 _atom_site_symmetry_multiplicity
 _atom_site_fract_x
 _atom_site_fract_y
 _atom_site_fract_z
 _atom_site_occupancy
  Sr  Sr0  4  0.13423300  0.63423300  0.26846600  1.0
  Sr  Sr1  2  0.12750500  0.12750500  0.25501000  1.0
  Sr  Sr2  2  0.35018600  0.35018600  0.70037200  1.0
  Cu  Cu3  4  0.00000000  0.00000000  0.50000000  1.0
  C  C4  4  0.25034000  0.73670100  0.00000000  0.95
  B  B5  4  0.25034000  0.73670100  0.00000000  0.05
  O  O6  8  0.01174400  0.76345300  0.52560400  1.0
  O  O7  8  0.19100800  0.26129000  0.85713100  1.0
  O  O8  4  0.08361000  0.73277000  0.00000000  1.0
