# generated using pymatgen
data_Sr2Cu1B0.07C0.93O5
_symmetry_space_group_name_H-M   Pmm2
_cell_length_a   3.70537900
_cell_length_b   4.35079600
_cell_length_c   7.58321400
_cell_angle_alpha   90.00000000
_cell_angle_beta   90.00000000
_cell_angle_gamma   90.00000000
_symmetry_Int_Tables_number   25
_chemical_formula_structural   Sr2Cu1B0.07C0.93O5
_chemical_formula_sum   'Sr2 Cu1 B0.07 C0.93 O5'
_cell_volume   122.25163285
_cell_formula_units_Z   1
loop_
 _symmetry_equiv_pos_site_id
 _symmetry_equiv_pos_as_xyz
  1  'x, y, z'
  2  '-x, y, -z'
  3  '-x, y, z'
  4  'x, y, -z'
loop_
 _atom_site_type_symbol
 _atom_site_label
 _atom_site_symmetry_multiplicity
 _atom_site_fract_x
 _atom_site_fract_y
 _atom_site_fract_z
 _atom_site_occupancy
  Sr  Sr0  2  0.50000000  0.50388800  0.22630500  1.0
  Cu  Cu1  1  0.00000000  0.99927900  0.00000000  1.0
  C  C2  1  0.00000000  0.98514600  0.50000000  0.9299999999999999
  B  B3  1  0.00000000  0.98514600  0.50000000  0.07
  O  O4  2  0.00000000  0.12758900  0.34953900  1.0
  O  O5  1  0.00000000  0.50669600  0.00000000  1.0
  O  O6  1  0.00000000  0.68678100  0.50000000  1.0
  O  O7  1  0.50000000  0.00114500  0.00000000  1.0
