# generated using pymatgen
data_Nb1.72B2.28
_symmetry_space_group_name_H-M   Cmcm
_cell_length_a   3.18297100
_cell_length_b   3.31773200
_cell_length_c   4.69335210
_cell_angle_alpha   110.69848747
_cell_angle_beta   90.00000000
_cell_angle_gamma   90.00000000
_symmetry_Int_Tables_number   63
_chemical_formula_structural   Nb1.72B2.28
_chemical_formula_sum   'Nb1.72 B2.28'
_cell_volume   46.36382524
_cell_formula_units_Z   1
loop_
 _symmetry_equiv_pos_site_id
 _symmetry_equiv_pos_as_xyz
  1  'x, y, z'
  2  '-x, -y, -z'
  3  'x+1/2, -y, -z'
  4  '-x+1/2, y, z'
  5  '-x, y-z, -z'
  6  'x, -y+z, z'
  7  '-x+1/2, -y+z, z'
  8  'x+1/2, y-z, -z'
loop_
 _atom_site_type_symbol
 _atom_site_label
 _atom_site_symmetry_multiplicity
 _atom_site_fract_x
 _atom_site_fract_y
 _atom_site_fract_z
 _atom_site_occupancy
  Nb  Nb0  2  0.25000000  0.14543700  0.29087400  0.86
  B  B1  2  0.25000000  0.14543700  0.29087400  0.14
  B  B2  2  0.25000000  0.44204800  0.88409600  1.0
