# generated using pymatgen
data_B5.76Mo2.24
_symmetry_space_group_name_H-M   R-3m
_cell_length_a   4.34615684
_cell_length_b   4.34615684
_cell_length_c   4.34615696
_cell_angle_alpha   73.93400276
_cell_angle_beta   73.93400276
_cell_angle_gamma   73.93400340
_symmetry_Int_Tables_number   166
_chemical_formula_structural   B5.76Mo2.24
_chemical_formula_sum   'B5.76 Mo2.24'
_cell_volume   74.00516970
_cell_formula_units_Z   1
loop_
 _symmetry_equiv_pos_site_id
 _symmetry_equiv_pos_as_xyz
  1  'x, y, z'
  2  '-x, -y, -z'
  3  'z, x, y'
  4  '-z, -x, -y'
  5  'y, z, x'
  6  '-y, -z, -x'
  7  '-z, -y, -x'
  8  'z, y, x'
  9  '-y, -x, -z'
  10  'y, x, z'
  11  '-x, -z, -y'
  12  'x, z, y'
loop_
 _atom_site_type_symbol
 _atom_site_label
 _atom_site_symmetry_multiplicity
 _atom_site_fract_x
 _atom_site_fract_y
 _atom_site_fract_z
 _atom_site_occupancy
  B  B0  6  0.00000000  0.33498500  0.66501500  0.96
  Mo  Mo1  6  0.00000000  0.33498500  0.66501500  0.04
  Mo  Mo2  2  0.16466100  0.16466100  0.16466100  1.0
