# generated using pymatgen
data_B
_symmetry_space_group_name_H-M   R-3m
_cell_length_a   5.22784294
_cell_length_b   5.22784294
_cell_length_c   5.22784266
_cell_angle_alpha   67.45281198
_cell_angle_beta   67.45281198
_cell_angle_gamma   67.45282000
_symmetry_Int_Tables_number   166
_chemical_formula_structural   B
_chemical_formula_sum   B15
_cell_volume   117.09666871
_cell_formula_units_Z   15
loop_
 _symmetry_equiv_pos_site_id
 _symmetry_equiv_pos_as_xyz
  1  'x, y, z'
  2  '-x, -y, -z'
  3  'z, x, y'
  4  '-z, -x, -y'
  5  'y, z, x'
  6  '-y, -z, -x'
  7  '-z, -y, -x'
  8  'z, y, x'
  9  '-y, -x, -z'
  10  'y, x, z'
  11  '-x, -z, -y'
  12  'x, z, y'
loop_
 _atom_site_type_symbol
 _atom_site_label
 _atom_site_symmetry_multiplicity
 _atom_site_fract_x
 _atom_site_fract_y
 _atom_site_fract_z
 _atom_site_occupancy
  B  B0  6  0.00686400  0.00686400  0.32938900  1.0
  B  B1  6  0.19281700  0.19281700  0.69902000  1.0
  B  B2  2  0.36593300  0.36593300  0.36593300  1.0
  B  B3  1  0.50000000  0.50000000  0.50000000  1.0
