# generated using pymatgen
data_B
_symmetry_space_group_name_H-M   R-3m
_cell_length_a   10.16346275
_cell_length_b   10.16346275
_cell_length_c   10.16346325
_cell_angle_alpha   65.39563210
_cell_angle_beta   65.39563210
_cell_angle_gamma   65.39562722
_symmetry_Int_Tables_number   166
_chemical_formula_structural   B
_chemical_formula_sum   B105
_cell_volume   829.51307076
_cell_formula_units_Z   105
loop_
 _symmetry_equiv_pos_site_id
 _symmetry_equiv_pos_as_xyz
  1  'x, y, z'
  2  '-x, -y, -z'
  3  'z, x, y'
  4  '-z, -x, -y'
  5  'y, z, x'
  6  '-y, -z, -x'
  7  '-z, -y, -x'
  8  'z, y, x'
  9  '-y, -x, -z'
  10  'y, x, z'
  11  '-x, -z, -y'
  12  'x, z, y'
loop_
 _atom_site_type_symbol
 _atom_site_label
 _atom_site_symmetry_multiplicity
 _atom_site_fract_x
 _atom_site_fract_y
 _atom_site_fract_z
 _atom_site_occupancy
  B  B0  12  0.00397700  0.64053900  0.82369300  1.0
  B  B1  12  0.09585400  0.36449400  0.58040700  1.0
  B  B2  12  0.11245500  0.45425800  0.82140200  1.0
  B  B3  12  0.19951700  0.37819100  0.67503400  1.0
  B  B4  6  0.00055400  0.00055400  0.16302800  1.0
  B  B5  6  0.00309300  0.00309300  0.33730700  1.0
  B  B6  6  0.01823300  0.17830200  0.17830200  1.0
  B  B7  6  0.10091200  0.10091200  0.83473400  1.0
  B  B8  6  0.10684300  0.10684300  0.49104100  1.0
  B  B9  6  0.20082300  0.20082300  0.68538900  1.0
  B  B10  6  0.20281700  0.20281700  0.50476100  1.0
  B  B11  6  0.21398600  0.49033100  0.49033100  1.0
  B  B12  6  0.21711400  0.38721900  0.38721900  1.0
  B  B13  2  0.39327800  0.39327800  0.39327800  1.0
  B  B14  1  0.50000000  0.50000000  0.50000000  1.0
