# generated using pymatgen
data_B
_symmetry_space_group_name_H-M   Pnnm
_cell_length_a   5.04279500
_cell_length_b   5.61214300
_cell_length_c   6.91499400
_cell_angle_alpha   90.00000000
_cell_angle_beta   90.00000000
_cell_angle_gamma   90.00000000
_symmetry_Int_Tables_number   58
_chemical_formula_structural   B
_chemical_formula_sum   B28
_cell_volume   195.70046145
_cell_formula_units_Z   28
loop_
 _symmetry_equiv_pos_site_id
 _symmetry_equiv_pos_as_xyz
  1  'x, y, z'
  2  '-x, -y, -z'
  3  '-x, -y, z'
  4  'x, y, -z'
  5  'x+1/2, -y+1/2, -z+1/2'
  6  '-x+1/2, y+1/2, z+1/2'
  7  '-x+1/2, y+1/2, -z+1/2'
  8  'x+1/2, -y+1/2, z+1/2'
loop_
 _atom_site_type_symbol
 _atom_site_label
 _atom_site_symmetry_multiplicity
 _atom_site_fract_x
 _atom_site_fract_y
 _atom_site_fract_z
 _atom_site_occupancy
  B  B0  8  0.15250800  0.59270700  0.20931200  1.0
  B  B1  8  0.16110000  0.28125200  0.12573900  1.0
  B  B2  4  0.14768300  0.77152900  0.00000000  1.0
  B  B3  4  0.16458400  0.00842700  0.50000000  1.0
  B  B4  4  0.17031400  0.52095000  0.50000000  1.0
