# generated using pymatgen
data_B
_symmetry_space_group_name_H-M   R-3m
_cell_length_a   10.12299321
_cell_length_b   10.12299321
_cell_length_c   10.12299298
_cell_angle_alpha   65.24406539
_cell_angle_beta   65.24406539
_cell_angle_gamma   65.24406494
_symmetry_Int_Tables_number   166
_chemical_formula_structural   B
_chemical_formula_sum   B105
_cell_volume   817.33768708
_cell_formula_units_Z   105
loop_
 _symmetry_equiv_pos_site_id
 _symmetry_equiv_pos_as_xyz
  1  'x, y, z'
  2  '-x, -y, -z'
  3  'z, x, y'
  4  '-z, -x, -y'
  5  'y, z, x'
  6  '-y, -z, -x'
  7  '-z, -y, -x'
  8  'z, y, x'
  9  '-y, -x, -z'
  10  'y, x, z'
  11  '-x, -z, -y'
  12  'x, z, y'
loop_
 _atom_site_type_symbol
 _atom_site_label
 _atom_site_symmetry_multiplicity
 _atom_site_fract_x
 _atom_site_fract_y
 _atom_site_fract_z
 _atom_site_occupancy
  B  B0  12  0.00386300  0.17398800  0.34966400  1.0
  B  B1  12  0.09597300  0.36356900  0.58036200  1.0
  B  B2  12  0.10494400  0.44898700  0.83405200  1.0
  B  B3  12  0.20017400  0.37554500  0.68409900  1.0
  B  B4  6  0.00260300  0.00260300  0.16390300  1.0
  B  B5  6  0.00490100  0.00490100  0.33485700  1.0
  B  B6  6  0.09951000  0.09951000  0.84138200  1.0
  B  B7  6  0.10416700  0.10416700  0.49045000  1.0
  B  B8  6  0.19890400  0.19890400  0.68682800  1.0
  B  B9  6  0.19917200  0.19917200  0.50603900  1.0
  B  B10  6  0.21356000  0.38157900  0.38157900  1.0
  B  B11  6  0.22109200  0.48931800  0.48931800  1.0
  B  B12  6  0.38442700  0.38442700  0.56826500  1.0
  B  B13  2  0.38480900  0.38480900  0.38480900  1.0
  B  B14  1  0.50000000  0.50000000  0.50000000  1.0
