# generated using pymatgen
data_BMo2C
_symmetry_space_group_name_H-M   Cmcm
_cell_length_a   3.07699800
_cell_length_b   3.11538000
_cell_length_c   8.90755537
_cell_angle_alpha   100.07126150
_cell_angle_beta   90.00000000
_cell_angle_gamma   90.00000000
_symmetry_Int_Tables_number   63
_chemical_formula_structural   BMo2C
_chemical_formula_sum   'B2 Mo4 C2'
_cell_volume   84.07224433
_cell_formula_units_Z   2
loop_
 _symmetry_equiv_pos_site_id
 _symmetry_equiv_pos_as_xyz
  1  'x, y, z'
  2  '-x, -y, -z'
  3  'x+1/2, -y, -z'
  4  '-x+1/2, y, z'
  5  '-x, y-z, -z'
  6  'x, -y+z, z'
  7  '-x+1/2, -y+z, z'
  8  'x+1/2, y-z, -z'
loop_
 _atom_site_type_symbol
 _atom_site_label
 _atom_site_symmetry_multiplicity
 _atom_site_fract_x
 _atom_site_fract_y
 _atom_site_fract_z
 _atom_site_occupancy
  B  B0  2  0.25000000  0.47205300  0.94410600  1.0
  Mo  Mo1  2  0.25000000  0.07188800  0.14377600  1.0
  Mo  Mo2  2  0.25000000  0.31453900  0.62907800  1.0
  C  C3  2  0.25000000  0.19122200  0.38244400  1.0
