# generated using pymatgen
data_BI3
_symmetry_space_group_name_H-M   P6_3/m
_cell_length_a   7.40243000
_cell_length_b   7.40242963
_cell_length_c   8.83471100
_cell_angle_alpha   90.00000000
_cell_angle_beta   90.00000000
_cell_angle_gamma   120.00000166
_symmetry_Int_Tables_number   176
_chemical_formula_structural   BI3
_chemical_formula_sum   'B2 I6'
_cell_volume   419.24854946
_cell_formula_units_Z   2
loop_
 _symmetry_equiv_pos_site_id
 _symmetry_equiv_pos_as_xyz
  1  'x, y, z'
  2  '-x, -y, -z'
  3  'x-y, x, z+1/2'
  4  '-x+y, -x, -z+1/2'
  5  '-y, x-y, z'
  6  'y, -x+y, -z'
  7  '-x, -y, z+1/2'
  8  'x, y, -z+1/2'
  9  '-x+y, -x, z'
  10  'x-y, x, -z'
  11  'y, -x+y, z+1/2'
  12  '-y, x-y, -z+1/2'
loop_
 _atom_site_type_symbol
 _atom_site_label
 _atom_site_symmetry_multiplicity
 _atom_site_fract_x
 _atom_site_fract_y
 _atom_site_fract_z
 _atom_site_occupancy
  B  B0  2  0.33333333  0.66666667  0.25000000  1.0
  I  I1  6  0.04662700  0.66862200  0.25000000  1.0
