# generated using pymatgen
data_Mn2B
_symmetry_space_group_name_H-M   I4/mcm
_cell_length_a   4.10389000
_cell_length_b   4.12852433
_cell_length_c   4.12852433
_cell_angle_alpha   75.69843562
_cell_angle_beta   60.19718667
_cell_angle_gamma   60.19718667
_symmetry_Int_Tables_number   140
_chemical_formula_structural   Mn2B
_chemical_formula_sum   'Mn4 B2'
_cell_volume   52.67028812
_cell_formula_units_Z   2
loop_
 _symmetry_equiv_pos_site_id
 _symmetry_equiv_pos_as_xyz
  1  'x, y, z'
  2  '-x, -y, -z'
  3  'x+z, -z, y'
  4  '-x-z, z, -y'
  5  'x+y+z, -y, -z'
  6  '-x-y-z, y, z'
  7  'x+y, z, -y'
  8  '-x-y, -z, y'
  9  '-x-y-z+1/2, z, y'
  10  'x+y+z+1/2, -z, -y'
  11  '-x-y+1/2, y, -z'
  12  'x+y+1/2, -y, z'
  13  '-x+1/2, -z, -y'
  14  'x+1/2, z, y'
  15  '-x-z+1/2, -y, z'
  16  'x+z+1/2, y, -z'
loop_
 _atom_site_type_symbol
 _atom_site_label
 _atom_site_symmetry_multiplicity
 _atom_site_fract_x
 _atom_site_fract_y
 _atom_site_fract_z
 _atom_site_occupancy
  Mn  Mn0  4  0.15860100  0.18279800  0.50000000  1.0
  B  B1  2  0.25000000  0.00000000  0.00000000  1.0
