# generated using pymatgen
data_ReBMo
_symmetry_space_group_name_H-M   Fmmm
_cell_length_a   4.53854302
_cell_length_b   4.53854302
_cell_length_c   4.59631779
_cell_angle_alpha   105.32119987
_cell_angle_beta   105.32119987
_cell_angle_gamma   117.69811766
_symmetry_Int_Tables_number   69
_chemical_formula_structural   ReBMo
_chemical_formula_sum   'Re2 B2 Mo2'
_cell_volume   72.06691215
_cell_formula_units_Z   2
loop_
 _symmetry_equiv_pos_site_id
 _symmetry_equiv_pos_as_xyz
  1  'x, y, z'
  2  '-x, -y, -z'
  3  '-x+z+1/2, -y+z+1/2, z'
  4  'x-z+1/2, y-z+1/2, -z'
  5  'y-z, x-z, -z'
  6  '-y+z, -x+z, z'
  7  '-y+1/2, -x+1/2, -z'
  8  'y+1/2, x+1/2, z'
loop_
 _atom_site_type_symbol
 _atom_site_label
 _atom_site_symmetry_multiplicity
 _atom_site_fract_x
 _atom_site_fract_y
 _atom_site_fract_z
 _atom_site_occupancy
  Re  Re0  2  0.33108900  0.83108900  0.16217800  1.0
  B  B1  2  0.25000000  0.25000000  0.00000000  1.0
  Mo  Mo2  2  0.16757600  0.33242400  0.50000000  1.0
