# generated using pymatgen
data_BN
_symmetry_space_group_name_H-M   Cm
_cell_length_a   2.51198200
_cell_length_b   4.39850340
_cell_length_c   6.67374450
_cell_angle_alpha   90.50964591
_cell_angle_beta   100.84768942
_cell_angle_gamma   90.00000000
_symmetry_Int_Tables_number   8
_chemical_formula_structural   BN
_chemical_formula_sum   'B4 N4'
_cell_volume   72.41734767
_cell_formula_units_Z   4
loop_
 _symmetry_equiv_pos_site_id
 _symmetry_equiv_pos_as_xyz
  1  'x, y, z'
  2  '-x+z, y, z'
loop_
 _atom_site_type_symbol
 _atom_site_label
 _atom_site_symmetry_multiplicity
 _atom_site_fract_x
 _atom_site_fract_y
 _atom_site_fract_z
 _atom_site_occupancy
  B  B0  1  0.13424700  0.61942500  0.26849400  1.0
  B  B1  1  0.46846900  0.50171800  0.93693800  1.0
  B  B2  1  0.79998900  0.57229800  0.59997800  1.0
  B  B3  1  0.99991700  0.00117600  0.99983400  1.0
  N  N4  1  0.01923200  0.65689400  0.03846400  1.0
  N  N5  1  0.35310500  0.55620200  0.70621000  1.0
  N  N6  1  0.49384500  0.15683600  0.98769000  1.0
  N  N7  1  0.68769800  0.60695100  0.37539600  1.0
