# generated using pymatgen
data_BN
_symmetry_space_group_name_H-M   P1
_cell_length_a   10.05024163
_cell_length_b   10.60492501
_cell_length_c   10.59016908
_cell_angle_alpha   86.51291682
_cell_angle_beta   88.43836650
_cell_angle_gamma   90.81090649
_symmetry_Int_Tables_number   1
_chemical_formula_structural   BN
_chemical_formula_sum   'B50 N50'
_cell_volume   1126.07240038
_cell_formula_units_Z   50
loop_
 _symmetry_equiv_pos_site_id
 _symmetry_equiv_pos_as_xyz
  1  'x, y, z'
loop_
 _atom_site_type_symbol
 _atom_site_label
 _atom_site_symmetry_multiplicity
 _atom_site_fract_x
 _atom_site_fract_y
 _atom_site_fract_z
 _atom_site_occupancy
  B  B0  1  0.01250100  0.01561500  0.15823600  1.0
  B  B1  1  0.04569600  0.27280300  0.35796400  1.0
  B  B2  1  0.05508300  0.65739600  0.66809200  1.0
  B  B3  1  0.09044500  0.52655200  0.93071000  1.0
  B  B4  1  0.09416100  0.02321900  0.46831500  1.0
  B  B5  1  0.11417800  0.45194600  0.50864300  1.0
  B  B6  1  0.12719400  0.42185300  0.84004800  1.0
  B  B7  1  0.13452100  0.16543900  0.86617200  1.0
  B  B8  1  0.15810100  0.89488900  0.10764200  1.0
  B  B9  1  0.19458000  0.87563900  0.74512200  1.0
  B  B10  1  0.21853100  0.69680100  0.99246700  1.0
  B  B11  1  0.21995500  0.07136700  0.28499000  1.0
  B  B12  1  0.22933300  0.81659800  0.55008400  1.0
  B  B13  1  0.25871600  0.38265400  0.75333100  1.0
  B  B14  1  0.27442700  0.20335700  0.40436100  1.0
  B  B15  1  0.29861800  0.66126000  0.74751900  1.0
  B  B16  1  0.31942100  0.99803600  0.88969400  1.0
  B  B17  1  0.32483500  0.47488100  0.63865100  1.0
  B  B18  1  0.33446000  0.34077500  0.45918900  1.0
  B  B19  1  0.39239000  0.84542400  0.06362800  1.0
  B  B20  1  0.45274200  0.62992100  0.91661300  1.0
  B  B21  1  0.45316100  0.88761300  0.72003200  1.0
  B  B22  1  0.48434100  0.09686500  0.32404700  1.0
  B  B23  1  0.48694400  0.68413600  0.60147000  1.0
  B  B24  1  0.54575700  0.68382000  0.03897000  1.0
  B  B25  1  0.55565500  0.97534200  0.92866300  1.0
  B  B26  1  0.57370000  0.76573500  0.23860200  1.0
  B  B27  1  0.57695200  0.38634200  0.36906400  1.0
  B  B28  1  0.58218400  0.57104800  0.82746300  1.0
  B  B29  1  0.62724900  0.06168300  0.36818300  1.0
  B  B30  1  0.62849800  0.04312700  0.11231500  1.0
  B  B31  1  0.66376100  0.52542300  0.62627300  1.0
  B  B32  1  0.69142600  0.66798600  0.44002200  1.0
  B  B33  1  0.70550400  0.65854600  0.98576700  1.0
  B  B34  1  0.71095900  0.93274300  0.79047600  1.0
  B  B35  1  0.75971400  0.41372500  0.74055100  1.0
  B  B36  1  0.78607600  0.45762800  0.22688000  1.0
  B  B37  1  0.83472100  0.07167300  0.51756000  1.0
  B  B38  1  0.84023800  0.22838300  0.69871600  1.0
  B  B39  1  0.84186700  0.65992500  0.84788000  1.0
  B  B40  1  0.86865100  0.97572400  0.37037100  1.0
  B  B41  1  0.89258900  0.66154500  0.31869800  1.0
  B  B42  1  0.89758700  0.54234100  0.54001200  1.0
  B  B43  1  0.90602400  0.23864700  0.90413400  1.0
  B  B44  1  0.93833800  0.34998600  0.13565000  1.0
  B  B45  1  0.94175200  0.84147200  0.17191600  1.0
  B  B46  1  0.94416200  0.61450100  0.08901500  1.0
  B  B47  1  0.95018600  0.83582100  0.76640700  1.0
  B  B48  1  0.96872200  0.01025500  0.81961000  1.0
  B  B49  1  0.97959400  0.17134700  0.13315200  1.0
  N  N50  1  0.02114400  0.90117800  0.06849600  1.0
  N  N51  1  0.03854800  0.37866700  0.43027900  1.0
  N  N52  1  0.03989200  0.55946600  0.57845000  1.0
  N  N53  1  0.06388700  0.91668000  0.77506800  1.0
  N  N54  1  0.09262100  0.61691500  0.01368900  1.0
  N  N55  1  0.13582600  0.14970400  0.39245200  1.0
  N  N56  1  0.16489200  0.99607600  0.19708600  1.0
  N  N57  1  0.16958600  0.30011400  0.82020500  1.0
  N  N58  1  0.18388700  0.92915900  0.50602900  1.0
  N  N59  1  0.19088600  0.74316700  0.67983500  1.0
  N  N60  1  0.23287000  0.09125600  0.90794400  1.0
  N  N61  1  0.25317400  0.79805300  0.07006800  1.0
  N  N62  1  0.25869300  0.43552000  0.52475900  1.0
  N  N63  1  0.27081200  0.73118400  0.44137400  1.0
  N  N64  1  0.29399600  0.36327900  0.14475900  1.0
  N  N65  1  0.29929500  0.68862100  0.35028400  1.0
  N  N66  1  0.31469400  0.65657100  0.88608000  1.0
  N  N67  1  0.32326700  0.92609000  0.77250200  1.0
  N  N68  1  0.34670800  0.11811900  0.32758200  1.0
  N  N69  1  0.34968400  0.45454700  0.14735200  1.0
  N  N70  1  0.38515100  0.59563700  0.65899600  1.0
  N  N71  1  0.42237500  0.95147300  0.98177700  1.0
  N  N72  1  0.45048900  0.19236100  0.68276900  1.0
  N  N73  1  0.46509600  0.81301300  0.61726500  1.0
  N  N74  1  0.47227300  0.36181200  0.43964200  1.0
  N  N75  1  0.50228300  0.77340000  0.12847000  1.0
  N  N76  1  0.53515100  0.20469000  0.74685300  1.0
  N  N77  1  0.57584500  0.93411900  0.79564100  1.0
  N  N78  1  0.58450000  0.05855500  0.23274000  1.0
  N  N79  1  0.61025200  0.62589600  0.54970100  1.0
  N  N80  1  0.62470900  0.46545800  0.75278700  1.0
  N  N81  1  0.64246500  0.73967600  0.33618300  1.0
  N  N82  1  0.66306800  0.02630700  0.99431800  1.0
  N  N83  1  0.68142000  0.41943700  0.29213200  1.0
  N  N84  1  0.69227200  0.65733100  0.84720800  1.0
  N  N85  1  0.74478400  0.02728900  0.42202800  1.0
  N  N86  1  0.79835400  0.47488600  0.61547600  1.0
  N  N87  1  0.81821400  0.15848400  0.60831000  1.0
  N  N88  1  0.83500700  0.30797500  0.80063900  1.0
  N  N89  1  0.83839000  0.62835500  0.43527600  1.0
  N  N90  1  0.84472800  0.92709100  0.79674600  1.0
  N  N91  1  0.85090300  0.64844500  0.98465600  1.0
  N  N92  1  0.89873200  0.48023100  0.15148600  1.0
  N  N93  1  0.90532600  0.93904100  0.24956100  1.0
  N  N94  1  0.92653800  0.26320000  0.03321000  1.0
  N  N95  1  0.93267000  0.70245500  0.20072700  1.0
  N  N96  1  0.94360700  0.70192500  0.74832700  1.0
  N  N97  1  0.95198700  0.00211900  0.47705900  1.0
  N  N98  1  0.98887400  0.13295900  0.85805800  1.0
  N  N99  1  0.99016000  0.26346400  0.23218000  1.0
