# generated using pymatgen
data_BN
_symmetry_space_group_name_H-M   P2_1/c
_cell_length_a   3.92705000
_cell_length_b   4.93859300
_cell_length_c   4.94150360
_cell_angle_alpha   90.00000000
_cell_angle_beta   111.95794016
_cell_angle_gamma   90.00000000
_symmetry_Int_Tables_number   14
_chemical_formula_structural   BN
_chemical_formula_sum   'B4 N4'
_cell_volume   88.88394350
_cell_formula_units_Z   4
loop_
 _symmetry_equiv_pos_site_id
 _symmetry_equiv_pos_as_xyz
  1  'x, y, z'
  2  '-x, -y, -z'
  3  '-x, y+1/2, -z+1/2'
  4  'x, -y+1/2, z+1/2'
loop_
 _atom_site_type_symbol
 _atom_site_label
 _atom_site_symmetry_multiplicity
 _atom_site_fract_x
 _atom_site_fract_y
 _atom_site_fract_z
 _atom_site_occupancy
  B  B0  4  0.49972900  0.64223700  0.35797100  1.0
  N  N1  4  0.49896600  0.65654700  0.65644100  1.0
