# generated using pymatgen
data_BN
_symmetry_space_group_name_H-M   P1
_cell_length_a   10.55421807
_cell_length_b   10.98177371
_cell_length_c   11.32700286
_cell_angle_alpha   92.65090638
_cell_angle_beta   93.88443367
_cell_angle_gamma   90.07016363
_symmetry_Int_Tables_number   1
_chemical_formula_structural   BN
_chemical_formula_sum   'B50 N50'
_cell_volume   1308.41516421
_cell_formula_units_Z   50
loop_
 _symmetry_equiv_pos_site_id
 _symmetry_equiv_pos_as_xyz
  1  'x, y, z'
loop_
 _atom_site_type_symbol
 _atom_site_label
 _atom_site_symmetry_multiplicity
 _atom_site_fract_x
 _atom_site_fract_y
 _atom_site_fract_z
 _atom_site_occupancy
  B  B0  1  0.00268900  0.83901300  0.03972600  1.0
  B  B1  1  0.03701800  0.84036700  0.61606800  1.0
  B  B2  1  0.08164400  0.96649400  0.98708700  1.0
  B  B3  1  0.09665900  0.44018700  0.62791000  1.0
  B  B4  1  0.13401900  0.04891700  0.63134100  1.0
  B  B5  1  0.16292700  0.72384100  0.14606800  1.0
  B  B6  1  0.17533400  0.65428200  0.60481400  1.0
  B  B7  1  0.24010000  0.00745900  0.00599000  1.0
  B  B8  1  0.24727700  0.25527600  0.64287600  1.0
  B  B9  1  0.26565300  0.86350400  0.59483200  1.0
  B  B10  1  0.29178800  0.12524800  0.09941700  1.0
  B  B11  1  0.32847000  0.48223700  0.64883900  1.0
  B  B12  1  0.34667200  0.36809600  0.07721200  1.0
  B  B13  1  0.36407900  0.06010300  0.68586000  1.0
  B  B14  1  0.37497300  0.78193100  0.08044000  1.0
  B  B15  1  0.38062500  0.98317900  0.96152300  1.0
  B  B16  1  0.38115600  0.60151800  0.07653900  1.0
  B  B17  1  0.39869400  0.70021700  0.63365500  1.0
  B  B18  1  0.40640000  0.21156200  0.22419900  1.0
  B  B19  1  0.42105200  0.97579100  0.19509200  1.0
  B  B20  1  0.47873100  0.98787900  0.77044200  1.0
  B  B21  1  0.49626400  0.88928000  0.57203400  1.0
  B  B22  1  0.50945000  0.20452000  0.62609500  1.0
  B  B23  1  0.51388000  0.27691700  0.41576300  1.0
  B  B24  1  0.52246000  0.42641800  0.57344900  1.0
  B  B25  1  0.53748600  0.56220400  0.73956300  1.0
  B  B26  1  0.60041600  0.78120500  0.72435200  1.0
  B  B27  1  0.60591700  0.72710800  0.04757400  1.0
  B  B28  1  0.61565000  0.93965700  0.37980400  1.0
  B  B29  1  0.61716200  0.96583100  0.97139300  1.0
  B  B30  1  0.61727400  0.52801900  0.39752300  1.0
  B  B31  1  0.64737400  0.99035000  0.20200900  1.0
  B  B32  1  0.65676800  0.99653300  0.62460500  1.0
  B  B33  1  0.65840200  0.16652800  0.06046300  1.0
  B  B34  1  0.68843400  0.59105800  0.19306900  1.0
  B  B35  1  0.69996900  0.40444600  0.80254000  1.0
  B  B36  1  0.73045200  0.35658700  0.94472500  1.0
  B  B37  1  0.75061900  0.61035500  0.73114300  1.0
  B  B38  1  0.75480000  0.93354300  0.30502200  1.0
  B  B39  1  0.75739700  0.21009900  0.66742300  1.0
  B  B40  1  0.77243700  0.85578900  0.96675000  1.0
  B  B41  1  0.81585100  0.81870700  0.66338000  1.0
  B  B42  1  0.84029500  0.66183800  0.04677800  1.0
  B  B43  1  0.84589200  0.45584300  0.00264200  1.0
  B  B44  1  0.86740600  0.41869000  0.67289700  1.0
  B  B45  1  0.87174400  0.03088100  0.92105400  1.0
  B  B46  1  0.89704900  0.02482900  0.63214600  1.0
  B  B47  1  0.95465100  0.62845400  0.64383700  1.0
  B  B48  1  0.96868300  0.82931800  0.24484800  1.0
  B  B49  1  0.99901600  0.23240100  0.64206800  1.0
  N  N50  1  0.02229900  0.97220300  0.62128900  1.0
  N  N51  1  0.04777300  0.33374800  0.90596300  1.0
  N  N52  1  0.05550600  0.78504800  0.16430000  1.0
  N  N53  1  0.07296800  0.40841200  0.29337100  1.0
  N  N54  1  0.07309400  0.57093500  0.61570000  1.0
  N  N55  1  0.12630000  0.49217200  0.27495200  1.0
  N  N56  1  0.12855000  0.18130800  0.64164400  1.0
  N  N57  1  0.13226700  0.02014000  0.34121000  1.0
  N  N58  1  0.15328300  0.33294800  0.91684800  1.0
  N  N59  1  0.15642000  0.11411200  0.37652500  1.0
  N  N60  1  0.15723400  0.78464800  0.59626700  1.0
  N  N61  1  0.22787300  0.38896800  0.63480400  1.0
  N  N62  1  0.25669500  0.99074200  0.63232700  1.0
  N  N63  1  0.27329500  0.69206400  0.10501900  1.0
  N  N64  1  0.30109600  0.60750300  0.62192200  1.0
  N  N65  1  0.32963800  0.25492800  0.11646400  1.0
  N  N66  1  0.35821900  0.08713000  0.21046600  1.0
  N  N67  1  0.36972700  0.91154700  0.08158700  1.0
  N  N68  1  0.37550000  0.18850200  0.66082900  1.0
  N  N69  1  0.37714500  0.47875600  0.06003000  1.0
  N  N70  1  0.38565900  0.81037400  0.56543500  1.0
  N  N71  1  0.46240800  0.45972300  0.68482600  1.0
  N  N72  1  0.47513000  0.69743800  0.06456900  1.0
  N  N73  1  0.49214500  0.98996600  0.89814200  1.0
  N  N74  1  0.49737000  0.26629900  0.30179500  1.0
  N  N75  1  0.50229200  0.68857200  0.72160200  1.0
  N  N76  1  0.51885600  0.29740600  0.53537100  1.0
  N  N77  1  0.53994000  0.94499000  0.26325100  1.0
  N  N78  1  0.56419000  0.91013200  0.69816000  1.0
  N  N79  1  0.57311100  0.51096500  0.49924000  1.0
  N  N80  1  0.57678400  0.95001600  0.50024000  1.0
  N  N81  1  0.62583600  0.05164500  0.08985000  1.0
  N  N82  1  0.63631000  0.13822900  0.65231400  1.0
  N  N83  1  0.64472200  0.83164000  0.99366100  1.0
  N  N84  1  0.66216800  0.55227000  0.29338100  1.0
  N  N85  1  0.66312500  0.53418900  0.78744500  1.0
  N  N86  1  0.68832800  0.26430300  0.01024600  1.0
  N  N87  1  0.71081300  0.65041100  0.09221300  1.0
  N  N88  1  0.72682700  0.74035500  0.71684400  1.0
  N  N89  1  0.75589000  0.97655400  0.91866700  1.0
  N  N90  1  0.76198800  0.34135600  0.70553700  1.0
  N  N91  1  0.78962100  0.94594600  0.63917600  1.0
  N  N92  1  0.85904500  0.55121400  0.68515500  1.0
  N  N93  1  0.87207900  0.88011000  0.28818800  1.0
  N  N94  1  0.88141800  0.78241700  0.00539500  1.0
  N  N95  1  0.88331900  0.15703800  0.64311600  1.0
  N  N96  1  0.91116200  0.55276700  0.03804300  1.0
  N  N97  1  0.93457400  0.76024000  0.63811100  1.0
  N  N98  1  0.98617000  0.36370700  0.63995000  1.0
  N  N99  1  0.99454900  0.04987500  0.93257400  1.0
