# generated using pymatgen
data_BN
_symmetry_space_group_name_H-M   P1
_cell_length_a   10.36520140
_cell_length_b   10.83012507
_cell_length_c   10.83713749
_cell_angle_alpha   89.61355483
_cell_angle_beta   82.65844795
_cell_angle_gamma   88.92337743
_symmetry_Int_Tables_number   1
_chemical_formula_structural   BN
_chemical_formula_sum   'B50 N50'
_cell_volume   1206.34061838
_cell_formula_units_Z   50
loop_
 _symmetry_equiv_pos_site_id
 _symmetry_equiv_pos_as_xyz
  1  'x, y, z'
loop_
 _atom_site_type_symbol
 _atom_site_label
 _atom_site_symmetry_multiplicity
 _atom_site_fract_x
 _atom_site_fract_y
 _atom_site_fract_z
 _atom_site_occupancy
  B  B0  1  0.02543200  0.66940400  0.70320700  1.0
  B  B1  1  0.04260300  0.71610800  0.00194200  1.0
  B  B2  1  0.06696900  0.27710200  0.68561700  1.0
  B  B3  1  0.11533300  0.88065600  0.66369600  1.0
  B  B4  1  0.16354700  0.48323300  0.67625900  1.0
  B  B5  1  0.19123600  0.11784600  0.09698100  1.0
  B  B6  1  0.19786300  0.91944500  0.99920700  1.0
  B  B7  1  0.20230500  0.54173100  0.05192900  1.0
  B  B8  1  0.20553200  0.09220500  0.63227000  1.0
  B  B9  1  0.22557400  0.41062400  0.23076000  1.0
  B  B10  1  0.25838300  0.31671200  0.03703500  1.0
  B  B11  1  0.25855300  0.69251500  0.61550200  1.0
  B  B12  1  0.30931600  0.29555300  0.61905900  1.0
  B  B13  1  0.32006300  0.43411800  0.82107000  1.0
  B  B14  1  0.33682700  0.90712300  0.56335000  1.0
  B  B15  1  0.37029700  0.64816200  0.91216800  1.0
  B  B16  1  0.39911400  0.02758700  0.91772000  1.0
  B  B17  1  0.41440300  0.53067000  0.66967300  1.0
  B  B18  1  0.41776400  0.79424300  0.94627100  1.0
  B  B19  1  0.42172400  0.41568700  0.28014400  1.0
  B  B20  1  0.44456400  0.10488600  0.54748100  1.0
  B  B21  1  0.44842600  0.26180300  0.88690000  1.0
  B  B22  1  0.44978000  0.19670600  0.12349800  1.0
  B  B23  1  0.45248900  0.57951100  0.10659300  1.0
  B  B24  1  0.47305100  0.75927400  0.27532600  1.0
  B  B25  1  0.48638900  0.73372100  0.55987700  1.0
  B  B26  1  0.49986600  0.34512500  0.06391500  1.0
  B  B27  1  0.51100800  0.86804100  0.36803000  1.0
  B  B28  1  0.51945200  0.30660100  0.46523700  1.0
  B  B29  1  0.55765400  0.37921200  0.89737400  1.0
  B  B30  1  0.56422500  0.98714300  0.50425800  1.0
  B  B31  1  0.56716100  0.75799100  0.00881000  1.0
  B  B32  1  0.60067900  0.02222100  0.21925800  1.0
  B  B33  1  0.60757600  0.53835600  0.90807900  1.0
  B  B34  1  0.61234700  0.60035100  0.66926500  1.0
  B  B35  1  0.65312600  0.43770200  0.74630600  1.0
  B  B36  1  0.65969100  0.33727300  0.32223000  1.0
  B  B37  1  0.67963700  0.82088400  0.63823300  1.0
  B  B38  1  0.69425100  0.21633300  0.54560600  1.0
  B  B39  1  0.71262400  0.93816900  0.11148000  1.0
  B  B40  1  0.74625700  0.03178000  0.65149300  1.0
  B  B41  1  0.79132500  0.65690000  0.75590100  1.0
  B  B42  1  0.81505400  0.39599500  0.13023900  1.0
  B  B43  1  0.81675900  0.79513700  0.03924400  1.0
  B  B44  1  0.82603900  0.25460700  0.69615900  1.0
  B  B45  1  0.88316800  0.85961200  0.71672600  1.0
  B  B46  1  0.91518000  0.46012100  0.72001600  1.0
  B  B47  1  0.94603300  0.56112000  0.01858500  1.0
  B  B48  1  0.97072300  0.06872400  0.69414700  1.0
  B  B49  1  0.99991900  0.93607100  0.06089600  1.0
  N  N50  1  0.00989100  0.80242800  0.70937600  1.0
  N  N51  1  0.04843800  0.40824100  0.69578000  1.0
  N  N52  1  0.08980600  0.59042900  0.00392100  1.0
  N  N53  1  0.09210900  0.83601900  0.01057600  1.0
  N  N54  1  0.09826000  0.01329600  0.67046800  1.0
  N  N55  1  0.11572500  0.02796600  0.06014800  1.0
  N  N56  1  0.15141600  0.61426500  0.66397300  1.0
  N  N57  1  0.19056200  0.41441200  0.11165600  1.0
  N  N58  1  0.19451600  0.22340300  0.64873500  1.0
  N  N59  1  0.23522300  0.82528100  0.60798100  1.0
  N  N60  1  0.28519700  0.41538000  0.32982600  1.0
  N  N61  1  0.28557700  0.19834600  0.10581100  1.0
  N  N62  1  0.29998400  0.42325000  0.67621000  1.0
  N  N63  1  0.31428000  0.33076200  0.90783600  1.0
  N  N64  1  0.32506300  0.60158900  0.03861600  1.0
  N  N65  1  0.32620000  0.03741400  0.58059700  1.0
  N  N66  1  0.33740800  0.91495900  0.95315800  1.0
  N  N67  1  0.37040100  0.55523900  0.81475000  1.0
  N  N68  1  0.38797600  0.64331800  0.58874900  1.0
  N  N69  1  0.42664300  0.24180100  0.55203800  1.0
  N  N70  1  0.44740300  0.13157600  0.87752600  1.0
  N  N71  1  0.45118700  0.66783500  0.21074200  1.0
  N  N72  1  0.46419700  0.85987900  0.50937300  1.0
  N  N73  1  0.46747900  0.44415800  0.14503600  1.0
  N  N74  1  0.51062100  0.10556200  0.17959200  1.0
  N  N75  1  0.52141900  0.37866700  0.35389700  1.0
  N  N76  1  0.55906600  0.48277900  0.64991300  1.0
  N  N77  1  0.57048700  0.61815500  0.00496200  1.0
  N  N78  1  0.58838500  0.97166000  0.35434000  1.0
  N  N79  1  0.60887000  0.71507400  0.60305400  1.0
  N  N80  1  0.66145400  0.27151700  0.44734800  1.0
  N  N81  1  0.66595000  0.94769800  0.59390700  1.0
  N  N82  1  0.67585800  0.58266300  0.78393800  1.0
  N  N83  1  0.67719200  0.82557300  0.04461200  1.0
  N  N84  1  0.72471000  0.11240700  0.95563600  1.0
  N  N85  1  0.73070200  0.16841200  0.65095900  1.0
  N  N86  1  0.75349300  0.21086600  0.95445000  1.0
  N  N87  1  0.75900100  0.33661400  0.22870500  1.0
  N  N88  1  0.77257100  0.78381000  0.72257900  1.0
  N  N89  1  0.79625400  0.38364100  0.71714700  1.0
  N  N90  1  0.83672000  0.60613300  0.37266300  1.0
  N  N91  1  0.86111800  0.98941300  0.70255000  1.0
  N  N92  1  0.86257700  0.91927900  0.07960100  1.0
  N  N93  1  0.88140900  0.45293200  0.03625500  1.0
  N  N94  1  0.90312700  0.69482600  0.00980200  1.0
  N  N95  1  0.91035600  0.56765400  0.42949200  1.0
  N  N96  1  0.91292000  0.59332500  0.73583800  1.0
  N  N97  1  0.91899900  0.07254200  0.37325500  1.0
  N  N98  1  0.95402900  0.20087200  0.69907200  1.0
  N  N99  1  0.98844700  0.13484000  0.31751300  1.0
