# generated using pymatgen
data_BN
_symmetry_space_group_name_H-M   P1
_cell_length_a   10.44419468
_cell_length_b   10.75648167
_cell_length_c   10.66331323
_cell_angle_alpha   90.24926457
_cell_angle_beta   98.18770577
_cell_angle_gamma   85.75241912
_symmetry_Int_Tables_number   1
_chemical_formula_structural   BN
_chemical_formula_sum   'B50 N50'
_cell_volume   1182.45529951
_cell_formula_units_Z   50
loop_
 _symmetry_equiv_pos_site_id
 _symmetry_equiv_pos_as_xyz
  1  'x, y, z'
loop_
 _atom_site_type_symbol
 _atom_site_label
 _atom_site_symmetry_multiplicity
 _atom_site_fract_x
 _atom_site_fract_y
 _atom_site_fract_z
 _atom_site_occupancy
  B  B0  1  0.02266900  0.22586200  0.25833200  1.0
  B  B1  1  0.04926900  0.73310300  0.77186000  1.0
  B  B2  1  0.07075700  0.86085900  0.42648400  1.0
  B  B3  1  0.07324500  0.60094700  0.37751900  1.0
  B  B4  1  0.08639200  0.05224500  0.75009500  1.0
  B  B5  1  0.10865300  0.51758100  0.13238100  1.0
  B  B6  1  0.14035800  0.23453300  0.14092800  1.0
  B  B7  1  0.14380000  0.84384800  0.88187800  1.0
  B  B8  1  0.18457900  0.04904000  0.54373600  1.0
  B  B9  1  0.20174400  0.07870400  0.95135800  1.0
  B  B10  1  0.26227900  0.51751700  0.24446700  1.0
  B  B11  1  0.27381700  0.17835500  0.37772500  1.0
  B  B12  1  0.29954400  0.83744600  0.46597200  1.0
  B  B13  1  0.30661100  0.73557200  0.74425400  1.0
  B  B14  1  0.30706600  0.21576800  0.96595900  1.0
  B  B15  1  0.32304500  0.07014800  0.76149800  1.0
  B  B16  1  0.34318500  0.42690000  0.06012400  1.0
  B  B17  1  0.41904600  0.12756800  0.57602000  1.0
  B  B18  1  0.42087800  0.54948000  0.24602900  1.0
  B  B19  1  0.45550500  0.35422100  0.87570400  1.0
  B  B20  1  0.49709800  0.67034400  0.45405000  1.0
  B  B21  1  0.54042400  0.72567200  0.67121900  1.0
  B  B22  1  0.55393900  0.53465700  0.06728100  1.0
  B  B23  1  0.56438000  0.05955000  0.79163300  1.0
  B  B24  1  0.63358200  0.81098000  0.77633800  1.0
  B  B25  1  0.64053800  0.13166800  0.50823800  1.0
  B  B26  1  0.64437000  0.27839200  0.79235100  1.0
  B  B27  1  0.64857200  0.60607100  0.31501000  1.0
  B  B28  1  0.69120400  0.64976900  0.93685800  1.0
  B  B29  1  0.69426700  0.14232600  0.99383000  1.0
  B  B30  1  0.70424100  0.07134500  0.38394600  1.0
  B  B31  1  0.70776800  0.99006100  0.17197400  1.0
  B  B32  1  0.73063200  0.60945300  0.58474300  1.0
  B  B33  1  0.73234500  0.96167800  0.92454000  1.0
  B  B34  1  0.75775600  0.97064400  0.52385000  1.0
  B  B35  1  0.79603000  0.17384100  0.21003800  1.0
  B  B36  1  0.81219700  0.35677600  0.64759700  1.0
  B  B37  1  0.81645800  0.90788200  0.38252800  1.0
  B  B38  1  0.82399400  0.14346700  0.70070800  1.0
  B  B39  1  0.83809000  0.72526400  0.56618500  1.0
  B  B40  1  0.84459400  0.81221400  0.17880500  1.0
  B  B41  1  0.85780900  0.62195000  0.44068600  1.0
  B  B42  1  0.88340600  0.29543900  0.04617000  1.0
  B  B43  1  0.92214500  0.44604800  0.54471200  1.0
  B  B44  1  0.94650400  0.48059400  0.96876000  1.0
  B  B45  1  0.97224400  0.07753700  0.39539200  1.0
  B  B46  1  0.97440200  0.93309400  0.91099300  1.0
  B  B47  1  0.98468100  0.71070200  0.01513700  1.0
  B  B48  1  0.99212000  0.19475800  0.58926600  1.0
  B  B49  1  0.99634300  0.67333500  0.53287400  1.0
  N  N50  1  0.00601400  0.28186600  0.13371900  1.0
  N  N51  1  0.02026900  0.79021400  0.90634300  1.0
  N  N52  1  0.02346100  0.57359700  0.02021300  1.0
  N  N53  1  0.05646200  0.12342200  0.49989800  1.0
  N  N54  1  0.06638200  0.72111300  0.43153800  1.0
  N  N55  1  0.10926700  0.98328400  0.89156900  1.0
  N  N56  1  0.13037700  0.54811500  0.27035300  1.0
  N  N57  1  0.16734600  0.20957200  0.28061700  1.0
  N  N58  1  0.19041000  0.91409000  0.47946200  1.0
  N  N59  1  0.19301300  0.75445800  0.79919300  1.0
  N  N60  1  0.20128500  0.04205300  0.68988300  1.0
  N  N61  1  0.20646400  0.18036100  0.04104900  1.0
  N  N62  1  0.23151500  0.44573800  0.12433800  1.0
  N  N63  1  0.29100300  0.12320100  0.49829100  1.0
  N  N64  1  0.31776200  0.09978200  0.89511000  1.0
  N  N65  1  0.35019200  0.86401300  0.11840200  1.0
  N  N66  1  0.36202700  0.33716700  0.95791900  1.0
  N  N67  1  0.39149100  0.75957900  0.44092800  1.0
  N  N68  1  0.39170800  0.92575300  0.19547300  1.0
  N  N69  1  0.40834900  0.21800800  0.34534400  1.0
  N  N70  1  0.41534800  0.71406200  0.70636100  1.0
  N  N71  1  0.43946700  0.08179500  0.70569100  1.0
  N  N72  1  0.44818000  0.50153900  0.12002300  1.0
  N  N73  1  0.45416400  0.25846200  0.26417000  1.0
  N  N74  1  0.51500600  0.17736500  0.51385900  1.0
  N  N75  1  0.51994100  0.60233100  0.32991100  1.0
  N  N76  1  0.54104200  0.37329400  0.80221600  1.0
  N  N77  1  0.58817100  0.64752100  0.56860700  1.0
  N  N78  1  0.62836400  0.93770000  0.81886600  1.0
  N  N79  1  0.63111700  0.16186000  0.86491000  1.0
  N  N80  1  0.64869400  0.58050000  0.02501200  1.0
  N  N81  1  0.68664300  0.01248900  0.04137600  1.0
  N  N82  1  0.69920700  0.10041200  0.25362600  1.0
  N  N83  1  0.72484200  0.72278400  0.85323100  1.0
  N  N84  1  0.74352600  0.07202900  0.61090600  1.0
  N  N85  1  0.75599800  0.87555000  0.24417900  1.0
  N  N86  1  0.75677700  0.27139200  0.72234900  1.0
  N  N87  1  0.77242800  0.61072900  0.33020300  1.0
  N  N88  1  0.77919400  0.22170800  0.07974000  1.0
  N  N89  1  0.78869800  0.84714300  0.50544500  1.0
  N  N90  1  0.80021800  0.48752600  0.60284800  1.0
  N  N91  1  0.85774800  0.98567200  0.90733000  1.0
  N  N92  1  0.88009800  0.38443600  0.94650200  1.0
  N  N93  1  0.91526000  0.17371000  0.30122500  1.0
  N  N94  1  0.92735000  0.31734200  0.58084100  1.0
  N  N95  1  0.92988900  0.76769600  0.11131900  1.0
  N  N96  1  0.95836100  0.94217200  0.38572700  1.0
  N  N97  1  0.96999500  0.12380000  0.70700100  1.0
  N  N98  1  0.97342000  0.71042300  0.65930300  1.0
  N  N99  1  0.98862100  0.53547700  0.47452300  1.0
