# generated using pymatgen
data_BN
_symmetry_space_group_name_H-M   P1
_cell_length_a   10.43193623
_cell_length_b   10.69649166
_cell_length_c   10.94820876
_cell_angle_alpha   86.36191598
_cell_angle_beta   88.31296926
_cell_angle_gamma   90.00168236
_symmetry_Int_Tables_number   1
_chemical_formula_structural   BN
_chemical_formula_sum   'B50 N50'
_cell_volume   1218.66459266
_cell_formula_units_Z   50
loop_
 _symmetry_equiv_pos_site_id
 _symmetry_equiv_pos_as_xyz
  1  'x, y, z'
loop_
 _atom_site_type_symbol
 _atom_site_label
 _atom_site_symmetry_multiplicity
 _atom_site_fract_x
 _atom_site_fract_y
 _atom_site_fract_z
 _atom_site_occupancy
  B  B0  1  0.00708100  0.06562400  0.36475200  1.0
  B  B1  1  0.04191500  0.60758700  0.88854800  1.0
  B  B2  1  0.07253400  0.48948600  0.31719600  1.0
  B  B3  1  0.08393200  0.86557400  0.28096900  1.0
  B  B4  1  0.13206100  0.08093900  0.98047700  1.0
  B  B5  1  0.16773900  0.18493200  0.47006400  1.0
  B  B6  1  0.16981600  0.67241900  0.18866400  1.0
  B  B7  1  0.17332700  0.40560800  0.88977500  1.0
  B  B8  1  0.21872100  0.38383500  0.45855600  1.0
  B  B9  1  0.21892200  0.97874800  0.40989200  1.0
  B  B10  1  0.22975300  0.73956500  0.98023100  1.0
  B  B11  1  0.27614000  0.77038300  0.35052600  1.0
  B  B12  1  0.30083500  0.94257500  0.86214800  1.0
  B  B13  1  0.31616600  0.24894800  0.64126900  1.0
  B  B14  1  0.34790800  0.53555600  0.33024100  1.0
  B  B15  1  0.35402800  0.99675500  0.71767200  1.0
  B  B16  1  0.36805700  0.57518100  0.05824700  1.0
  B  B17  1  0.37930700  0.38463600  0.95139300  1.0
  B  B18  1  0.38638300  0.08738000  0.53271400  1.0
  B  B19  1  0.40159800  0.87486000  0.50118100  1.0
  B  B20  1  0.45951000  0.76725000  0.91491800  1.0
  B  B21  1  0.46629300  0.39093700  0.17934000  1.0
  B  B22  1  0.49013800  0.41641200  0.72402400  1.0
  B  B23  1  0.49205900  0.71563900  0.37737600  1.0
  B  B24  1  0.51154900  0.54044400  0.91078800  1.0
  B  B25  1  0.52876000  0.35366900  0.56860900  1.0
  B  B26  1  0.54215000  0.13111400  0.47548900  1.0
  B  B27  1  0.55294900  0.87094000  0.66837000  1.0
  B  B28  1  0.58176200  0.28637100  0.14483300  1.0
  B  B29  1  0.58318100  0.81126400  0.81800800  1.0
  B  B30  1  0.58772100  0.50973400  0.33140900  1.0
  B  B31  1  0.62828900  0.90826200  0.40812200  1.0
  B  B32  1  0.63104600  0.72891900  0.67706900  1.0
  B  B33  1  0.63369400  0.05466500  0.09820300  1.0
  B  B34  1  0.66048200  0.96729000  0.70710700  1.0
  B  B35  1  0.66136100  0.56853500  0.65692900  1.0
  B  B36  1  0.69602700  0.30901900  0.41425700  1.0
  B  B37  1  0.72416800  0.70125500  0.34516800  1.0
  B  B38  1  0.73222100  0.31803700  0.09693600  1.0
  B  B39  1  0.77320400  0.09733900  0.40086700  1.0
  B  B40  1  0.78055100  0.17556600  0.73528300  1.0
  B  B41  1  0.79683800  0.90984000  0.01954900  1.0
  B  B42  1  0.80445900  0.64935600  0.80643300  1.0
  B  B43  1  0.81059400  0.41470600  0.73917700  1.0
  B  B44  1  0.83135200  0.48871800  0.34234500  1.0
  B  B45  1  0.85596400  0.89237600  0.32748100  1.0
  B  B46  1  0.93828900  0.28073500  0.39595700  1.0
  B  B47  1  0.94999500  0.68278300  0.27449100  1.0
  B  B48  1  0.95176000  0.22949300  0.04646400  1.0
  B  B49  1  0.97098100  0.77430600  0.93078100  1.0
  N  N50  1  0.02993000  0.91515200  0.65955600  1.0
  N  N51  1  0.04248700  0.18718100  0.41286800  1.0
  N  N52  1  0.04578900  0.15300700  0.03541200  1.0
  N  N53  1  0.05877300  0.60221200  0.24000800  1.0
  N  N54  1  0.08144600  0.48719700  0.87056400  1.0
  N  N55  1  0.10225300  0.72381900  0.93737800  1.0
  N  N56  1  0.10692300  0.97936400  0.33829300  1.0
  N  N57  1  0.17554400  0.60504000  0.61314200  1.0
  N  N58  1  0.19145900  0.78658400  0.25078900  1.0
  N  N59  1  0.21199900  0.46447500  0.35795000  1.0
  N  N60  1  0.21566800  0.28979900  0.54610900  1.0
  N  N61  1  0.21584000  0.01272100  0.92804000  1.0
  N  N62  1  0.26053300  0.64831200  0.08718400  1.0
  N  N63  1  0.26146500  0.08879800  0.46269200  1.0
  N  N64  1  0.26324700  0.64710500  0.64908300  1.0
  N  N65  1  0.27520500  0.33080400  0.90316300  1.0
  N  N66  1  0.28226100  0.86345300  0.43855500  1.0
  N  N67  1  0.28757800  0.18755700  0.18414000  1.0
  N  N68  1  0.33285700  0.81551300  0.91979100  1.0
  N  N69  1  0.34153000  0.11927200  0.66398800  1.0
  N  N70  1  0.34366300  0.10280700  0.21392000  1.0
  N  N71  1  0.36310900  0.66272300  0.36263700  1.0
  N  N72  1  0.39272000  0.43857800  0.07623700  1.0
  N  N73  1  0.41398800  0.34072600  0.65174900  1.0
  N  N74  1  0.42136200  0.91861900  0.62095200  1.0
  N  N75  1  0.46027900  0.46444100  0.29221300  1.0
  N  N76  1  0.47098900  0.63798900  0.97433000  1.0
  N  N77  1  0.49130600  0.43268800  0.85563800  1.0
  N  N78  1  0.51055100  0.83667200  0.42684700  1.0
  N  N79  1  0.58001100  0.26537100  0.48375300  1.0
  N  N80  1  0.58016600  0.15871500  0.13238600  1.0
  N  N81  1  0.58339300  0.46386700  0.62605100  1.0
  N  N82  1  0.60095500  0.64082100  0.34978800  1.0
  N  N83  1  0.64240800  0.04639000  0.42618100  1.0
  N  N84  1  0.68395500  0.94842100  0.06515200  1.0
  N  N85  1  0.69678000  0.73772800  0.79387200  1.0
  N  N86  1  0.70307200  0.43267100  0.35445600  1.0
  N  N87  1  0.73444400  0.83514000  0.35935700  1.0
  N  N88  1  0.73673600  0.06138800  0.73109100  1.0
  N  N89  1  0.77720200  0.53955500  0.73040400  1.0
  N  N90  1  0.80698500  0.22954300  0.40947300  1.0
  N  N91  1  0.81976700  0.29381400  0.73681600  1.0
  N  N92  1  0.83505600  0.62308900  0.32045100  1.0
  N  N93  1  0.85085500  0.30421400  0.06445600  1.0
  N  N94  1  0.87692300  0.02139800  0.35627900  1.0
  N  N95  1  0.90817000  0.87295300  0.98055600  1.0
  N  N96  1  0.91662500  0.66807500  0.86622200  1.0
  N  N97  1  0.95485000  0.41688100  0.36030800  1.0
  N  N98  1  0.95709400  0.81773000  0.27415100  1.0
  N  N99  1  0.98691100  0.83982800  0.60824600  1.0
