# generated using pymatgen
data_BN
_symmetry_space_group_name_H-M   P1
_cell_length_a   10.12541027
_cell_length_b   11.33781958
_cell_length_c   10.88894963
_cell_angle_alpha   88.76752112
_cell_angle_beta   87.44317983
_cell_angle_gamma   93.40802040
_symmetry_Int_Tables_number   1
_chemical_formula_structural   BN
_chemical_formula_sum   'B50 N50'
_cell_volume   1246.23334785
_cell_formula_units_Z   50
loop_
 _symmetry_equiv_pos_site_id
 _symmetry_equiv_pos_as_xyz
  1  'x, y, z'
loop_
 _atom_site_type_symbol
 _atom_site_label
 _atom_site_symmetry_multiplicity
 _atom_site_fract_x
 _atom_site_fract_y
 _atom_site_fract_z
 _atom_site_occupancy
  B  B0  1  0.00306600  0.58210900  0.28266400  1.0
  B  B1  1  0.04319100  0.91265600  0.03158700  1.0
  B  B2  1  0.09274000  0.06877300  0.83483700  1.0
  B  B3  1  0.11521500  0.69155200  0.99677400  1.0
  B  B4  1  0.12109100  0.97697600  0.48501100  1.0
  B  B5  1  0.12305800  0.42573600  0.73008900  1.0
  B  B6  1  0.18521800  0.20708700  0.83207100  1.0
  B  B7  1  0.19219200  0.09291200  0.02614400  1.0
  B  B8  1  0.19444800  0.44649300  0.24032700  1.0
  B  B9  1  0.22812600  0.27925100  0.28740100  1.0
  B  B10  1  0.23354600  0.12382100  0.37347800  1.0
  B  B11  1  0.24372100  0.31827900  0.03568800  1.0
  B  B12  1  0.29092300  0.59948300  0.70433700  1.0
  B  B13  1  0.29565400  0.54313100  0.95773500  1.0
  B  B14  1  0.33223400  0.22501200  0.75557400  1.0
  B  B15  1  0.34425200  0.37982000  0.43903600  1.0
  B  B16  1  0.36146600  0.93710900  0.45967700  1.0
  B  B17  1  0.36147100  0.10445000  0.18966100  1.0
  B  B18  1  0.37411000  0.80980200  0.66685200  1.0
  B  B19  1  0.42498500  0.45250300  0.88156600  1.0
  B  B20  1  0.45217200  0.68730800  0.84041300  1.0
  B  B21  1  0.46837900  0.25639900  0.35440200  1.0
  B  B22  1  0.48308200  0.93871400  0.69515600  1.0
  B  B23  1  0.49239500  0.39055700  0.75147600  1.0
  B  B24  1  0.50252700  0.99231000  0.27066000  1.0
  B  B25  1  0.51480000  0.90118800  0.84927300  1.0
  B  B26  1  0.53998700  0.30470100  0.58745200  1.0
  B  B27  1  0.56515600  0.05509300  0.04238500  1.0
  B  B28  1  0.66268100  0.10351800  0.61272100  1.0
  B  B29  1  0.67014500  0.08487200  0.93212600  1.0
  B  B30  1  0.67647100  0.74791100  0.91167100  1.0
  B  B31  1  0.68909700  0.50530300  0.60770000  1.0
  B  B32  1  0.69485100  0.31343300  0.23162400  1.0
  B  B33  1  0.76690400  0.60573000  0.03313200  1.0
  B  B34  1  0.78467700  0.71849000  0.69254600  1.0
  B  B35  1  0.79874400  0.22121400  0.53982700  1.0
  B  B36  1  0.81688800  0.68259900  0.51570300  1.0
  B  B37  1  0.84402200  0.38509100  0.04520100  1.0
  B  B38  1  0.85816800  0.09976300  0.75834000  1.0
  B  B39  1  0.87094300  0.20497500  0.18330200  1.0
  B  B40  1  0.87428800  0.18383400  0.96679900  1.0
  B  B41  1  0.88995500  0.40674100  0.44691800  1.0
  B  B42  1  0.89616100  0.45469200  0.66128000  1.0
  B  B43  1  0.90061300  0.74112900  0.38348900  1.0
  B  B44  1  0.93000500  0.84181200  0.49717600  1.0
  B  B45  1  0.93534900  0.04614200  0.17801300  1.0
  B  B46  1  0.94295400  0.03130400  0.62367400  1.0
  B  B47  1  0.98116700  0.19640500  0.37188700  1.0
  B  B48  1  0.98203400  0.35290000  0.84137100  1.0
  B  B49  1  0.98851300  0.79910600  0.17216700  1.0
  N  N50  1  0.04802900  0.78306800  0.04595700  1.0
  N  N51  1  0.10369700  0.31064200  0.78936700  1.0
  N  N52  1  0.10371000  0.00781500  0.95051400  1.0
  N  N53  1  0.11561700  0.54181300  0.22581800  1.0
  N  N54  1  0.12702800  0.19582900  0.36511300  1.0
  N  N55  1  0.18460600  0.61044800  0.95240400  1.0
  N  N56  1  0.21059800  0.34012600  0.16691300  1.0
  N  N57  1  0.21459800  0.21056400  0.97088600  1.0
  N  N58  1  0.22786000  0.50112400  0.68032100  1.0
  N  N59  1  0.24166700  0.00951800  0.43746900  1.0
  N  N60  1  0.25254000  0.06553700  0.13294100  1.0
  N  N61  1  0.25564000  0.40309800  0.35746100  1.0
  N  N62  1  0.31240200  0.41691000  0.96819000  1.0
  N  N63  1  0.33743800  0.82068100  0.07914300  1.0
  N  N64  1  0.34202400  0.86551400  0.56731300  1.0
  N  N65  1  0.35077200  0.18667000  0.30204200  1.0
  N  N66  1  0.35370900  0.77392800  0.16685100  1.0
  N  N67  1  0.36814600  0.70084900  0.73340100  1.0
  N  N68  1  0.43359700  0.57805200  0.90752000  1.0
  N  N69  1  0.44486300  0.31384500  0.47675100  1.0
  N  N70  1  0.44766700  0.26871900  0.70849000  1.0
  N  N71  1  0.47244500  0.94830700  0.37987900  1.0
  N  N72  1  0.49834100  0.05335700  0.16214300  1.0
  N  N73  1  0.51107500  0.57205700  0.25171500  1.0
  N  N74  1  0.53620900  0.78429200  0.88027400  1.0
  N  N75  1  0.55653200  0.00225400  0.92308300  1.0
  N  N76  1  0.56929400  0.01490900  0.64328500  1.0
  N  N77  1  0.57183300  0.63523600  0.30480100  1.0
  N  N78  1  0.57864300  0.42679400  0.64726200  1.0
  N  N79  1  0.58365200  0.28263700  0.28571600  1.0
  N  N80  1  0.65769200  0.22401900  0.56950000  1.0
  N  N81  1  0.71534400  0.71125100  0.02902700  1.0
  N  N82  1  0.71596800  0.63059400  0.60474200  1.0
  N  N83  1  0.76011700  0.75131700  0.80713900  1.0
  N  N84  1  0.79388800  0.12143600  0.87215500  1.0
  N  N85  1  0.81227500  0.50005900  0.03366800  1.0
  N  N86  1  0.81481900  0.44277200  0.56806300  1.0
  N  N87  1  0.81517600  0.31790800  0.16692800  1.0
  N  N88  1  0.81834100  0.10322400  0.62285900  1.0
  N  N89  1  0.88586500  0.76777200  0.59596400  1.0
  N  N90  1  0.90022600  0.27530500  0.45336000  1.0
  N  N91  1  0.90141900  0.31170000  0.94676300  1.0
  N  N92  1  0.90198000  0.13229900  0.08171600  1.0
  N  N93  1  0.90832100  0.12646800  0.28518900  1.0
  N  N94  1  0.93093500  0.49966700  0.36770900  1.0
  N  N95  1  0.96066700  0.71117400  0.26989200  1.0
  N  N96  1  0.97360400  0.92952100  0.15312400  1.0
  N  N97  1  0.97643700  0.45956000  0.75424000  1.0
  N  N98  1  0.98840800  0.05279300  0.74201500  1.0
  N  N99  1  0.99391500  0.96229100  0.52237000  1.0
