# generated using pymatgen
data_BN
_symmetry_space_group_name_H-M   Imm2
_cell_length_a   2.66653000
_cell_length_b   4.24266600
_cell_length_c   4.30641760
_cell_angle_alpha   119.51148871
_cell_angle_beta   108.03509986
_cell_angle_gamma   89.99999999
_symmetry_Int_Tables_number   44
_chemical_formula_structural   BN
_chemical_formula_sum   'B3 N3'
_cell_volume   39.62459401
_cell_formula_units_Z   3
loop_
 _symmetry_equiv_pos_site_id
 _symmetry_equiv_pos_as_xyz
  1  'x, y, z'
  2  '-x, y-z, -z'
  3  '-x+z, y, z'
  4  'x-z, y-z, -z'
loop_
 _atom_site_type_symbol
 _atom_site_label
 _atom_site_symmetry_multiplicity
 _atom_site_fract_x
 _atom_site_fract_y
 _atom_site_fract_z
 _atom_site_occupancy
  B  B0  2  0.19272500  0.61678100  0.38545000  1.0
  B  B1  1  0.00000000  0.94930200  0.00000000  1.0
  N  N2  2  0.19152000  0.98428800  0.38304100  1.0
  N  N3  1  0.00000000  0.27705100  0.00000000  1.0
