# generated using pymatgen
data_BN
_symmetry_space_group_name_H-M   Cc
_cell_length_a   3.28764200
_cell_length_b   4.34856975
_cell_length_c   4.99383798
_cell_angle_alpha   84.81911943
_cell_angle_beta   70.78160227
_cell_angle_gamma   74.07807580
_symmetry_Int_Tables_number   9
_chemical_formula_structural   BN
_chemical_formula_sum   'B4 N4'
_cell_volume   64.82952366
_cell_formula_units_Z   4
loop_
 _symmetry_equiv_pos_site_id
 _symmetry_equiv_pos_as_xyz
  1  'x, y, z'
  2  'x+z, y+1/2, -z'
loop_
 _atom_site_type_symbol
 _atom_site_label
 _atom_site_symmetry_multiplicity
 _atom_site_fract_x
 _atom_site_fract_y
 _atom_site_fract_z
 _atom_site_occupancy
  B  B0  2  0.17699900  0.50817900  0.38720300  1.0
  B  B1  2  0.43440000  0.99979600  0.13202700  1.0
  N  N2  2  0.37990600  0.67890700  0.13188100  1.0
  N  N3  2  0.38574000  0.15921700  0.39259900  1.0
