# generated using pymatgen
data_BN
_symmetry_space_group_name_H-M   R3m
_cell_length_a   2.51167917
_cell_length_b   2.51167917
_cell_length_c   3.93786602
_cell_angle_alpha   71.40274872
_cell_angle_beta   71.40274872
_cell_angle_gamma   60.00002187
_symmetry_Int_Tables_number   160
_chemical_formula_structural   BN
_chemical_formula_sum   'B1 N1'
_cell_volume   20.00208831
_cell_formula_units_Z   1
loop_
 _symmetry_equiv_pos_site_id
 _symmetry_equiv_pos_as_xyz
  1  'x, y, z'
  2  'y, -x-y-z, z'
  3  '-x-y-z, x, z'
  4  'y, x, z'
  5  '-x-y-z, y, z'
  6  'x, -x-y-z, z'
loop_
 _atom_site_type_symbol
 _atom_site_label
 _atom_site_symmetry_multiplicity
 _atom_site_fract_x
 _atom_site_fract_y
 _atom_site_fract_z
 _atom_site_occupancy
  B  B0  1  0.99958600  0.99958600  0.00124200  1.0
  N  N1  1  0.33284700  0.33284700  0.00145900  1.0
