# generated using pymatgen
data_BN
_symmetry_space_group_name_H-M   P1
_cell_length_a   10.54862904
_cell_length_b   10.80072060
_cell_length_c   11.09889523
_cell_angle_alpha   88.77782088
_cell_angle_beta   88.93207631
_cell_angle_gamma   88.92002051
_symmetry_Int_Tables_number   1
_chemical_formula_structural   BN
_chemical_formula_sum   'B50 N50'
_cell_volume   1263.80554003
_cell_formula_units_Z   50
loop_
 _symmetry_equiv_pos_site_id
 _symmetry_equiv_pos_as_xyz
  1  'x, y, z'
loop_
 _atom_site_type_symbol
 _atom_site_label
 _atom_site_symmetry_multiplicity
 _atom_site_fract_x
 _atom_site_fract_y
 _atom_site_fract_z
 _atom_site_occupancy
  B  B0  1  0.02508300  0.58677700  0.50588900  1.0
  B  B1  1  0.03502100  0.36096800  0.52890900  1.0
  B  B2  1  0.04444900  0.11148200  0.51922300  1.0
  B  B3  1  0.05909500  0.47301400  0.31863100  1.0
  B  B4  1  0.06026100  0.73121500  0.16038800  1.0
  B  B5  1  0.06176400  0.50498400  0.72233400  1.0
  B  B6  1  0.07227600  0.57168100  0.95763800  1.0
  B  B7  1  0.07561500  0.52216900  0.18078400  1.0
  B  B8  1  0.07721500  0.73522600  0.64054100  1.0
  B  B9  1  0.07874300  0.88797100  0.79644900  1.0
  B  B10  1  0.18999000  0.10143800  0.84711100  1.0
  B  B11  1  0.19893500  0.88809700  0.27578800  1.0
  B  B12  1  0.21373700  0.31984500  0.22286500  1.0
  B  B13  1  0.22202300  0.92155500  0.69518400  1.0
  B  B14  1  0.24363600  0.98337500  0.39090500  1.0
  B  B15  1  0.26182900  0.98617100  0.55735300  1.0
  B  B16  1  0.27240000  0.31615100  0.86072700  1.0
  B  B17  1  0.34184700  0.43969200  0.70900000  1.0
  B  B18  1  0.38499300  0.25967600  0.34778600  1.0
  B  B19  1  0.43816800  0.34190900  0.56140500  1.0
  B  B20  1  0.49411200  0.92783700  0.46265300  1.0
  B  B21  1  0.56915700  0.21554900  0.50921600  1.0
  B  B22  1  0.59087200  0.90919100  0.67881700  1.0
  B  B23  1  0.59142700  0.73603200  0.55111700  1.0
  B  B24  1  0.62037400  0.79726600  0.33473700  1.0
  B  B25  1  0.62167900  0.31111100  0.72343900  1.0
  B  B26  1  0.62349700  0.02048500  0.26066300  1.0
  B  B27  1  0.63431200  0.08952900  0.80635500  1.0
  B  B28  1  0.63481500  0.69521700  0.76353300  1.0
  B  B29  1  0.64130600  0.87664300  0.89646100  1.0
  B  B30  1  0.64914900  0.05636700  0.03176500  1.0
  B  B31  1  0.65745300  0.51700300  0.62349200  1.0
  B  B32  1  0.65799300  0.84402200  0.11762800  1.0
  B  B33  1  0.66795100  0.22792500  0.38158700  1.0
  B  B34  1  0.66919500  0.26875300  0.93830000  1.0
  B  B35  1  0.67044800  0.57846600  0.41374800  1.0
  B  B36  1  0.67382400  0.10634700  0.58136400  1.0
  B  B37  1  0.68046400  0.48377300  0.84753900  1.0
  B  B38  1  0.68347300  0.23346200  0.16268900  1.0
  B  B39  1  0.68693000  0.66495800  0.97971200  1.0
  B  B40  1  0.69800600  0.63066100  0.19737300  1.0
  B  B41  1  0.71027600  0.44770800  0.06735900  1.0
  B  B42  1  0.72785000  0.41363200  0.28796900  1.0
  B  B43  1  0.73291700  0.35719400  0.43785000  1.0
  B  B44  1  0.84904800  0.24296000  0.49008800  1.0
  B  B45  1  0.89110900  0.87265700  0.70908500  1.0
  B  B46  1  0.92802800  0.10669300  0.62707000  1.0
  B  B47  1  0.94086000  0.71750700  0.33004100  1.0
  B  B48  1  0.95465000  0.78581700  0.55511000  1.0
  B  B49  1  0.99808000  0.27263300  0.72219900  1.0
  N  N50  1  0.02096000  0.07824600  0.10698200  1.0
  N  N51  1  0.03992800  0.38114200  0.66371200  1.0
  N  N52  1  0.04465200  0.46783000  0.44621800  1.0
  N  N53  1  0.06166600  0.52952000  0.84990500  1.0
  N  N54  1  0.06902000  0.60204100  0.62965400  1.0
  N  N55  1  0.07849300  0.60760400  0.08130900  1.0
  N  N56  1  0.10908900  0.39422900  0.21634000  1.0
  N  N57  1  0.15804500  0.80635700  0.71572300  1.0
  N  N58  1  0.16091400  0.80957700  0.19981400  1.0
  N  N59  1  0.16292100  0.05138400  0.47979600  1.0
  N  N60  1  0.18033200  0.98452400  0.80910600  1.0
  N  N61  1  0.21772100  0.20967700  0.88918400  1.0
  N  N62  1  0.32194600  0.26496400  0.24558700  1.0
  N  N63  1  0.32814600  0.42066700  0.82895500  1.0
  N  N64  1  0.35147700  0.02010800  0.08481800  1.0
  N  N65  1  0.35490600  0.43933300  0.59050600  1.0
  N  N66  1  0.36071200  0.97034200  0.46267100  1.0
  N  N67  1  0.36983100  0.94027200  0.02456300  1.0
  N  N68  1  0.38615000  0.64158100  0.00239300  1.0
  N  N69  1  0.39522500  0.59650200  0.09305700  1.0
  N  N70  1  0.44158200  0.25699100  0.45290500  1.0
  N  N71  1  0.54002300  0.85987100  0.57097500  1.0
  N  N72  1  0.54596700  0.28390000  0.62011100  1.0
  N  N73  1  0.57917600  0.92947600  0.35396000  1.0
  N  N74  1  0.61677000  0.82643800  0.78083900  1.0
  N  N75  1  0.61776500  0.70209200  0.42978100  1.0
  N  N76  1  0.62251100  0.64655100  0.64521200  1.0
  N  N77  1  0.62676000  0.03740700  0.68721600  1.0
  N  N78  1  0.63632900  0.00878300  0.91244600  1.0
  N  N79  1  0.64181300  0.22201500  0.82096800  1.0
  N  N80  1  0.64411500  0.97583500  0.13874300  1.0
  N  N81  1  0.65794300  0.15630600  0.27555100  1.0
  N  N82  1  0.66016400  0.75818200  0.21760500  1.0
  N  N83  1  0.66497600  0.18723900  0.04488700  1.0
  N  N84  1  0.66523900  0.43503100  0.72957200  1.0
  N  N85  1  0.66737400  0.79583700  0.99815300  1.0
  N  N86  1  0.67494600  0.61553600  0.86215700  1.0
  N  N87  1  0.68499100  0.47737400  0.50194200  1.0
  N  N88  1  0.69143600  0.39903700  0.95020400  1.0
  N  N89  1  0.71060400  0.54487400  0.29604700  1.0
  N  N90  1  0.71142500  0.58080400  0.07959100  1.0
  N  N91  1  0.71889100  0.36142200  0.17153400  1.0
  N  N92  1  0.80392100  0.14050600  0.56500300  1.0
  N  N93  1  0.85024600  0.85753400  0.59440100  1.0
  N  N94  1  0.93883500  0.74555100  0.21540500  1.0
  N  N95  1  0.93959600  0.03584100  0.06138800  1.0
  N  N96  1  0.94775400  0.88745200  0.81384600  1.0
  N  N97  1  0.95583000  0.16223400  0.74059900  1.0
  N  N98  1  0.96120500  0.69448300  0.45081800  1.0
  N  N99  1  0.99549200  0.24035200  0.48091900  1.0
