# generated using pymatgen
data_BN
_symmetry_space_group_name_H-M   P1
_cell_length_a   10.25369098
_cell_length_b   10.78007600
_cell_length_c   11.32404897
_cell_angle_alpha   92.21547034
_cell_angle_beta   93.57785590
_cell_angle_gamma   91.25116011
_symmetry_Int_Tables_number   1
_chemical_formula_structural   BN
_chemical_formula_sum   'B50 N50'
_cell_volume   1247.96767678
_cell_formula_units_Z   50
loop_
 _symmetry_equiv_pos_site_id
 _symmetry_equiv_pos_as_xyz
  1  'x, y, z'
loop_
 _atom_site_type_symbol
 _atom_site_label
 _atom_site_symmetry_multiplicity
 _atom_site_fract_x
 _atom_site_fract_y
 _atom_site_fract_z
 _atom_site_occupancy
  B  B0  1  0.00599400  0.22984900  0.23204900  1.0
  B  B1  1  0.02528500  0.13850600  0.44019100  1.0
  B  B2  1  0.06332600  0.55948400  0.30064800  1.0
  B  B3  1  0.06928400  0.11216000  0.58905300  1.0
  B  B4  1  0.07201600  0.70944700  0.36530200  1.0
  B  B5  1  0.11566600  0.72815500  0.66141600  1.0
  B  B6  1  0.17598600  0.83964300  0.34246000  1.0
  B  B7  1  0.19821800  0.93699200  0.47749600  1.0
  B  B8  1  0.21620300  0.53719700  0.26045700  1.0
  B  B9  1  0.27843100  0.86959600  0.60198000  1.0
  B  B10  1  0.29853500  0.74443400  0.16409700  1.0
  B  B11  1  0.30239700  0.52952200  0.06892100  1.0
  B  B12  1  0.31985400  0.67481700  0.72385200  1.0
  B  B13  1  0.31992900  0.34988500  0.20124800  1.0
  B  B14  1  0.32630300  0.49353800  0.85028800  1.0
  B  B15  1  0.33193400  0.31441000  0.98435000  1.0
  B  B16  1  0.33776800  0.70762600  0.94531600  1.0
  B  B17  1  0.34095400  0.40246300  0.41423300  1.0
  B  B18  1  0.34273100  0.45596900  0.63036800  1.0
  B  B19  1  0.35165500  0.27819600  0.76758200  1.0
  B  B20  1  0.35656400  0.95808400  0.25665500  1.0
  B  B21  1  0.36027700  0.13664900  0.11997500  1.0
  B  B22  1  0.36074500  0.92014000  0.03548700  1.0
  B  B23  1  0.36080800  0.88573600  0.81398400  1.0
  B  B24  1  0.36541200  0.10019200  0.90179100  1.0
  B  B25  1  0.37005600  0.18023400  0.33886300  1.0
  B  B26  1  0.38778100  0.23833400  0.55496800  1.0
  B  B27  1  0.39212600  0.06528100  0.68486800  1.0
  B  B28  1  0.46057000  0.59207700  0.49514100  1.0
  B  B29  1  0.47342300  0.04112200  0.47173300  1.0
  B  B30  1  0.61404100  0.60563100  0.32090200  1.0
  B  B31  1  0.63624200  0.69498900  0.62792100  1.0
  B  B32  1  0.67808100  0.93598100  0.38575300  1.0
  B  B33  1  0.69015800  0.95716800  0.24014600  1.0
  B  B34  1  0.73430000  0.98701900  0.55706800  1.0
  B  B35  1  0.77148900  0.86607400  0.72117000  1.0
  B  B36  1  0.79339100  0.04831500  0.70231000  1.0
  B  B37  1  0.80135200  0.03177800  0.05516600  1.0
  B  B38  1  0.82648900  0.02024100  0.84624200  1.0
  B  B39  1  0.83381200  0.59364000  0.21785500  1.0
  B  B40  1  0.87539100  0.80264900  0.45644500  1.0
  B  B41  1  0.88351800  0.66713600  0.66276200  1.0
  B  B42  1  0.91312500  0.42252900  0.62855500  1.0
  B  B43  1  0.92156800  0.19090500  0.56318800  1.0
  B  B44  1  0.93529400  0.57183500  0.47576500  1.0
  B  B45  1  0.95321500  0.19497700  0.99686600  1.0
  B  B46  1  0.96522400  0.40159600  0.87618000  1.0
  B  B47  1  0.96958100  0.53711600  0.06638300  1.0
  B  B48  1  0.97132000  0.35585200  0.42433500  1.0
  B  B49  1  0.99262700  0.25697400  0.77245300  1.0
  N  N50  1  0.00251900  0.72584100  0.70453900  1.0
  N  N51  1  0.01370200  0.23856200  0.35640100  1.0
  N  N52  1  0.03735000  0.16857400  0.68843500  1.0
  N  N53  1  0.07222700  0.91769600  0.28552900  1.0
  N  N54  1  0.11896600  0.04619700  0.48942700  1.0
  N  N55  1  0.24208600  0.73925900  0.62608500  1.0
  N  N56  1  0.26914900  0.61203100  0.16705000  1.0
  N  N57  1  0.29383700  0.83539500  0.26529700  1.0
  N  N58  1  0.29419900  0.43270500  0.29868900  1.0
  N  N59  1  0.31133700  0.39677200  0.08375200  1.0
  N  N60  1  0.32274000  0.57623100  0.95391600  1.0
  N  N61  1  0.32386200  0.54095400  0.73137200  1.0
  N  N62  1  0.33257700  0.36155400  0.86668000  1.0
  N  N63  1  0.33993800  0.78939000  0.05052400  1.0
  N  N64  1  0.34789300  0.75511100  0.82830700  1.0
  N  N65  1  0.34997000  0.22119700  0.22019100  1.0
  N  N66  1  0.35272100  0.32331000  0.64972400  1.0
  N  N67  1  0.35280000  0.18371700  0.00225800  1.0
  N  N68  1  0.35888700  0.93424300  0.69417200  1.0
  N  N69  1  0.36082500  0.49623400  0.51155900  1.0
  N  N70  1  0.37023600  0.00489100  0.13854800  1.0
  N  N71  1  0.37088200  0.96816400  0.91781100  1.0
  N  N72  1  0.37151000  0.14793200  0.78496500  1.0
  N  N73  1  0.37394900  0.27366000  0.43437300  1.0
  N  N74  1  0.39140500  0.04649900  0.35959000  1.0
  N  N75  1  0.43033500  0.11300500  0.57552500  1.0
  N  N76  1  0.51550400  0.60460500  0.38415600  1.0
  N  N77  1  0.51723200  0.66329700  0.59800900  1.0
  N  N78  1  0.60238400  0.98690600  0.47521400  1.0
  N  N79  1  0.62601900  0.73197900  0.92315500  1.0
  N  N80  1  0.64552200  0.35624100  0.72610900  1.0
  N  N81  1  0.64692900  0.28258700  0.79234400  1.0
  N  N82  1  0.67156400  0.70249400  0.00884600  1.0
  N  N83  1  0.72140300  0.60991000  0.25809000  1.0
  N  N84  1  0.72937800  0.98917000  0.13946400  1.0
  N  N85  1  0.76155100  0.73766800  0.66565600  1.0
  N  N86  1  0.79522500  0.89787100  0.45796900  1.0
  N  N87  1  0.80954300  0.10305200  0.59523900  1.0
  N  N88  1  0.81212400  0.89028500  0.83938600  1.0
  N  N89  1  0.86426300  0.08241200  0.96661300  1.0
  N  N90  1  0.88739100  0.54827000  0.58966500  1.0
  N  N91  1  0.91684000  0.32499300  0.53464500  1.0
  N  N92  1  0.94718800  0.38284600  0.74621700  1.0
  N  N93  1  0.95722300  0.70730500  0.44009300  1.0
  N  N94  1  0.95882100  0.57730800  0.18331000  1.0
  N  N95  1  0.96684300  0.50224200  0.95669700  1.0
  N  N96  1  0.98415800  0.22178200  0.11960200  1.0
  N  N97  1  0.98856800  0.98423500  0.27044900  1.0
  N  N98  1  0.98909800  0.48392500  0.39384700  1.0
  N  N99  1  0.98975900  0.26647000  0.90077000  1.0
