# generated using pymatgen
data_BN
_symmetry_space_group_name_H-M   P1
_cell_length_a   10.37006881
_cell_length_b   10.99309038
_cell_length_c   11.52731072
_cell_angle_alpha   93.44757538
_cell_angle_beta   98.39315931
_cell_angle_gamma   88.72932907
_symmetry_Int_Tables_number   1
_chemical_formula_structural   BN
_chemical_formula_sum   'B50 N50'
_cell_volume   1297.55655595
_cell_formula_units_Z   50
loop_
 _symmetry_equiv_pos_site_id
 _symmetry_equiv_pos_as_xyz
  1  'x, y, z'
loop_
 _atom_site_type_symbol
 _atom_site_label
 _atom_site_symmetry_multiplicity
 _atom_site_fract_x
 _atom_site_fract_y
 _atom_site_fract_z
 _atom_site_occupancy
  B  B0  1  0.00920100  0.46689500  0.67103500  1.0
  B  B1  1  0.04906000  0.61320800  0.53233200  1.0
  B  B2  1  0.06666000  0.92781500  0.50075800  1.0
  B  B3  1  0.09055000  0.36884100  0.06956800  1.0
  B  B4  1  0.11122400  0.17992000  0.91079600  1.0
  B  B5  1  0.11523700  0.17553300  0.58924700  1.0
  B  B6  1  0.15430100  0.06838100  0.09918400  1.0
  B  B7  1  0.19289300  0.31910900  0.76516300  1.0
  B  B8  1  0.19875400  0.99522900  0.79847500  1.0
  B  B9  1  0.20026700  0.65537400  0.52670100  1.0
  B  B10  1  0.25887300  0.61463300  0.88238400  1.0
  B  B11  1  0.26315800  0.55004600  0.08835900  1.0
  B  B12  1  0.26846800  0.59110500  0.65326700  1.0
  B  B13  1  0.29971600  0.20127700  0.73925900  1.0
  B  B14  1  0.30341900  0.90944900  0.44404000  1.0
  B  B15  1  0.30612900  0.68175300  0.43149700  1.0
  B  B16  1  0.30962900  0.12600700  0.50908400  1.0
  B  B17  1  0.31163000  0.44109200  0.21112300  1.0
  B  B18  1  0.33932400  0.26041400  0.33832600  1.0
  B  B19  1  0.34403200  0.50631300  0.50122300  1.0
  B  B20  1  0.35701600  0.17591000  0.04460400  1.0
  B  B21  1  0.37416600  0.84130400  0.73428800  1.0
  B  B22  1  0.37869300  0.00841100  0.03780700  1.0
  B  B23  1  0.41130500  0.80084300  0.28293800  1.0
  B  B24  1  0.42280200  0.15147500  0.84948400  1.0
  B  B25  1  0.45209900  0.64806000  0.79767000  1.0
  B  B26  1  0.48873100  0.90178500  0.09325400  1.0
  B  B27  1  0.49036300  0.32453200  0.19046700  1.0
  B  B28  1  0.50144300  0.05653100  0.55558700  1.0
  B  B29  1  0.51487400  0.57275100  0.21180100  1.0
  B  B30  1  0.53568200  0.59598400  0.44175200  1.0
  B  B31  1  0.54156400  0.30080800  0.98545700  1.0
  B  B32  1  0.54206000  0.66109100  0.66528500  1.0
  B  B33  1  0.57427900  0.74838100  0.12127000  1.0
  B  B34  1  0.57826300  0.54056200  0.00258700  1.0
  B  B35  1  0.59283600  0.54900500  0.78349900  1.0
  B  B36  1  0.67368800  0.45272900  0.33069000  1.0
  B  B37  1  0.67435700  0.15535900  0.71360700  1.0
  B  B38  1  0.69287100  0.39483100  0.13140400  1.0
  B  B39  1  0.71015500  0.88041300  0.98467000  1.0
  B  B40  1  0.74597900  0.07001500  0.88840400  1.0
  B  B41  1  0.80243700  0.50033600  0.75502200  1.0
  B  B42  1  0.81220800  0.07374200  0.70168700  1.0
  B  B43  1  0.81299500  0.86321300  0.80797700  1.0
  B  B44  1  0.85128400  0.40400000  0.12655600  1.0
  B  B45  1  0.89434400  0.45299000  0.47242500  1.0
  B  B46  1  0.89729500  0.66958000  0.67543600  1.0
  B  B47  1  0.90308900  0.02951900  0.05475600  1.0
  B  B48  1  0.92162100  0.05716800  0.60567300  1.0
  B  B49  1  0.92656700  0.82200000  0.61067000  1.0
  N  N50  1  0.00287000  0.24688200  0.31518800  1.0
  N  N51  1  0.01123900  0.48063700  0.54273200  1.0
  N  N52  1  0.03077100  0.03657800  0.09250900  1.0
  N  N53  1  0.05670700  0.71876800  0.22183800  1.0
  N  N54  1  0.09671800  0.39239900  0.73933000  1.0
  N  N55  1  0.12069700  0.26949600  0.99064400  1.0
  N  N56  1  0.12100800  0.08157500  0.83580200  1.0
  N  N57  1  0.17004300  0.91926600  0.45212200  1.0
  N  N58  1  0.19303900  0.44996600  0.13134100  1.0
  N  N59  1  0.23659000  0.61650000  0.98920000  1.0
  N  N60  1  0.25166100  0.16816600  0.61600100  1.0
  N  N61  1  0.27290200  0.90920000  0.75469700  1.0
  N  N62  1  0.28767800  0.08496600  0.10957400  1.0
  N  N63  1  0.29608100  0.19699000  0.41360400  1.0
  N  N64  1  0.30279100  0.47654600  0.59801300  1.0
  N  N65  1  0.30668700  0.61950700  0.77900500  1.0
  N  N66  1  0.34849900  0.79517200  0.37929300  1.0
  N  N67  1  0.37935100  0.54843900  0.18274300  1.0
  N  N68  1  0.38130600  0.08791400  0.94495400  1.0
  N  N69  1  0.38430700  0.33740200  0.26609000  1.0
  N  N70  1  0.38613500  0.57348500  0.41835900  1.0
  N  N71  1  0.38677300  0.00666000  0.49817300  1.0
  N  N72  1  0.44938500  0.27379200  0.07154200  1.0
  N  N73  1  0.47518900  0.81883100  0.19219700  1.0
  N  N74  1  0.47548300  0.76277900  0.72851800  1.0
  N  N75  1  0.54102600  0.58767700  0.88793500  1.0
  N  N76  1  0.54902800  0.21272600  0.88973400  1.0
  N  N77  1  0.57170900  0.13635600  0.62051900  1.0
  N  N78  1  0.57621800  0.64005200  0.55533000  1.0
  N  N79  1  0.58085900  0.61998100  0.11359400  1.0
  N  N80  1  0.59053400  0.56170300  0.33178400  1.0
  N  N81  1  0.60926200  0.85368200  0.06037600  1.0
  N  N82  1  0.61589000  0.41262400  0.01569300  1.0
  N  N83  1  0.62249300  0.36703400  0.22519400  1.0
  N  N84  1  0.63652000  0.06850700  0.30290300  1.0
  N  N85  1  0.66372800  0.17284200  0.84037900  1.0
  N  N86  1  0.68886300  0.46139400  0.76448000  1.0
  N  N87  1  0.71254100  0.00497300  0.34362800  1.0
  N  N88  1  0.75287000  0.81161200  0.89602000  1.0
  N  N89  1  0.77398700  0.02214700  0.00989000  1.0
  N  N90  1  0.78778000  0.42802300  0.40518900  1.0
  N  N91  1  0.80852500  0.99879800  0.79979400  1.0
  N  N92  1  0.86286300  0.79381600  0.71131300  1.0
  N  N93  1  0.91263100  0.54921100  0.72317000  1.0
  N  N94  1  0.93760400  0.16678800  0.30114400  1.0
  N  N95  1  0.95089800  0.74160700  0.21433600  1.0
  N  N96  1  0.95691400  0.69757900  0.57162000  1.0
  N  N97  1  0.96046800  0.93286800  0.56273400  1.0
  N  N98  1  0.96168200  0.39045100  0.09293400  1.0
  N  N99  1  0.99243600  0.15401800  0.57045700  1.0
