# generated using pymatgen
data_Re14B4.66666667
_symmetry_space_group_name_H-M   P6_3mc
_cell_length_a   4.93198600
_cell_length_b   7.55498800
_cell_length_c   7.55498754
_cell_angle_alpha   120.00000202
_cell_angle_beta   90.00000000
_cell_angle_gamma   90.00000000
_symmetry_Int_Tables_number   186
_chemical_formula_structural   Re14B4.66666667
_chemical_formula_sum   'Re14 B4.66666667'
_cell_volume   243.79230260
_cell_formula_units_Z   1
loop_
 _symmetry_equiv_pos_site_id
 _symmetry_equiv_pos_as_xyz
  1  'x, y, z'
  2  'x+1/2, y-z, y'
  3  'x, -z, y-z'
  4  'x+1/2, -y, -z'
  5  'x, -y+z, -y'
  6  'x+1/2, z, -y+z'
  7  'x+1/2, y-z, -z'
  8  'x, -z, -y'
  9  'x+1/2, -y, -y+z'
  10  'x, -y+z, z'
  11  'x+1/2, z, y'
  12  'x, y, y-z'
loop_
 _atom_site_type_symbol
 _atom_site_label
 _atom_site_symmetry_multiplicity
 _atom_site_fract_x
 _atom_site_fract_y
 _atom_site_fract_z
 _atom_site_occupancy
  Re  Re0  6  0.24948500  0.12257800  0.87742100  1.0
  Re  Re1  6  0.45018500  0.54608100  0.45391900  1.0
  Re  Re2  2  0.41302900  0.33333333  0.66666667  1.0
  B  B3  6  0.15865900  0.37948100  0.18974100  0.7777777777833333
