# generated using pymatgen
data_Re3B
_symmetry_space_group_name_H-M   Cmcm
_cell_length_a   2.91168400
_cell_length_b   4.92520643
_cell_length_c   7.36813500
_cell_angle_alpha   90.00000000
_cell_angle_beta   90.00000000
_cell_angle_gamma   107.19292254
_symmetry_Int_Tables_number   63
_chemical_formula_structural   Re3B
_chemical_formula_sum   'Re6 B2'
_cell_volume   100.94220692
_cell_formula_units_Z   2
loop_
 _symmetry_equiv_pos_site_id
 _symmetry_equiv_pos_as_xyz
  1  'x, y, z'
  2  '-x, -y, -z'
  3  '-x, -y, z+1/2'
  4  'x, y, -z+1/2'
  5  'x-y, -y, -z'
  6  '-x+y, y, z'
  7  '-x+y, y, -z+1/2'
  8  'x-y, -y, z+1/2'
loop_
 _atom_site_type_symbol
 _atom_site_label
 _atom_site_symmetry_multiplicity
 _atom_site_fract_x
 _atom_site_fract_y
 _atom_site_fract_z
 _atom_site_occupancy
  Re  Re0  4  0.13308900  0.26617800  0.06543100  1.0
  Re  Re1  2  0.42344900  0.84689800  0.25000000  1.0
  B  B2  2  0.25517500  0.51035000  0.75000000  1.0
