# generated using pymatgen
data_VB
_symmetry_space_group_name_H-M   Cmcm
_cell_length_a   2.96925800
_cell_length_b   3.05287800
_cell_length_c   4.29754956
_cell_angle_alpha   110.80498068
_cell_angle_beta   90.00000000
_cell_angle_gamma   90.00000000
_symmetry_Int_Tables_number   63
_chemical_formula_structural   VB
_chemical_formula_sum   'V2 B2'
_cell_volume   36.41619516
_cell_formula_units_Z   2
loop_
 _symmetry_equiv_pos_site_id
 _symmetry_equiv_pos_as_xyz
  1  'x, y, z'
  2  '-x, -y, -z'
  3  'x+1/2, -y, -z'
  4  '-x+1/2, y, z'
  5  '-x, y-z, -z'
  6  'x, -y+z, z'
  7  '-x+1/2, -y+z, z'
  8  'x+1/2, y-z, -z'
loop_
 _atom_site_type_symbol
 _atom_site_label
 _atom_site_symmetry_multiplicity
 _atom_site_fract_x
 _atom_site_fract_y
 _atom_site_fract_z
 _atom_site_occupancy
  V  V0  2  0.25000000  0.14767500  0.29535000  1.0
  B  B1  2  0.25000000  0.43749700  0.87499400  1.0
