# generated using pymatgen
data_TbY3Ni8(B2C)4
_symmetry_space_group_name_H-M   P4/mmm
_cell_length_a   3.53360700
_cell_length_b   3.53360700
_cell_length_c   20.84650900
_cell_angle_alpha   90.00000000
_cell_angle_beta   90.00000000
_cell_angle_gamma   90.00000000
_symmetry_Int_Tables_number   123
_chemical_formula_structural   TbY3Ni8(B2C)4
_chemical_formula_sum   'Tb1 Y3 Ni8 B8 C4'
_cell_volume   260.29740033
_cell_formula_units_Z   1
loop_
 _symmetry_equiv_pos_site_id
 _symmetry_equiv_pos_as_xyz
  1  'x, y, z'
  2  '-x, -y, -z'
  3  '-y, x, z'
  4  'y, -x, -z'
  5  '-x, -y, z'
  6  'x, y, -z'
  7  'y, -x, z'
  8  '-y, x, -z'
  9  'x, -y, -z'
  10  '-x, y, z'
  11  '-y, -x, -z'
  12  'y, x, z'
  13  '-x, y, -z'
  14  'x, -y, z'
  15  'y, x, -z'
  16  '-y, -x, z'
loop_
 _atom_site_type_symbol
 _atom_site_label
 _atom_site_symmetry_multiplicity
 _atom_site_fract_x
 _atom_site_fract_y
 _atom_site_fract_z
 _atom_site_occupancy
  Tb  Tb0  1  0.50000000  0.50000000  0.00000000  1.0
  Y  Y1  2  0.00000000  0.00000000  0.25003000  1.0
  Y  Y2  1  0.50000000  0.50000000  0.50000000  1.0
  Ni  Ni3  4  0.00000000  0.50000000  0.12501800  1.0
  Ni  Ni4  4  0.00000000  0.50000000  0.37496900  1.0
  B  B5  2  0.00000000  0.00000000  0.07139700  1.0
  B  B6  2  0.00000000  0.00000000  0.42865000  1.0
  B  B7  2  0.50000000  0.50000000  0.17856900  1.0
  B  B8  2  0.50000000  0.50000000  0.32133000  1.0
  C  C9  2  0.50000000  0.50000000  0.24994900  1.0
  C  C10  1  0.00000000  0.00000000  0.00000000  1.0
  C  C11  1  0.00000000  0.00000000  0.50000000  1.0
