# generated using pymatgen
data_Tb1.4Y0.6Ni4B4C2
_symmetry_space_group_name_H-M   P4/mmm
_cell_length_a   3.53943600
_cell_length_b   3.53943600
_cell_length_c   10.45541000
_cell_angle_alpha   90.00000000
_cell_angle_beta   90.00000000
_cell_angle_gamma   90.00000000
_symmetry_Int_Tables_number   123
_chemical_formula_structural   Tb1.4Y0.6Ni4B4C2
_chemical_formula_sum   'Tb1.4 Y0.6 Ni4 B4 C2'
_cell_volume   130.98126958
_cell_formula_units_Z   1
loop_
 _symmetry_equiv_pos_site_id
 _symmetry_equiv_pos_as_xyz
  1  'x, y, z'
  2  '-x, -y, -z'
  3  '-y, x, z'
  4  'y, -x, -z'
  5  '-x, -y, z'
  6  'x, y, -z'
  7  'y, -x, z'
  8  '-y, x, -z'
  9  'x, -y, -z'
  10  '-x, y, z'
  11  '-y, -x, -z'
  12  'y, x, z'
  13  '-x, y, -z'
  14  'x, -y, z'
  15  'y, x, -z'
  16  '-y, -x, z'
loop_
 _atom_site_type_symbol
 _atom_site_label
 _atom_site_symmetry_multiplicity
 _atom_site_fract_x
 _atom_site_fract_y
 _atom_site_fract_z
 _atom_site_occupancy
  Tb  Tb0  1  0.00000000  0.00000000  0.50000000  1.0
  Y  Y1  1  0.50000000  0.50000000  0.00000000  0.6
  Tb  Tb2  1  0.50000000  0.50000000  0.00000000  0.4
  Ni  Ni3  4  0.00000000  0.50000000  0.24998300  1.0
  B  B4  2  0.00000000  0.00000000  0.14251900  1.0
  B  B5  2  0.50000000  0.50000000  0.35749700  1.0
  C  C6  1  0.00000000  0.00000000  0.00000000  1.0
  C  C7  1  0.50000000  0.50000000  0.50000000  1.0
