# generated using pymatgen
data_Tb4YNi10(B2C)5
_symmetry_space_group_name_H-M   I4/mmm
_cell_length_a   3.55372100
_cell_length_b   3.55372100
_cell_length_c   26.31558753
_cell_angle_alpha   93.87162754
_cell_angle_beta   93.87162535
_cell_angle_gamma   90.00000000
_symmetry_Int_Tables_number   139
_chemical_formula_structural   Tb4YNi10(B2C)5
_chemical_formula_sum   'Tb4 Y1 Ni10 B10 C5'
_cell_volume   330.81915447
_cell_formula_units_Z   1
loop_
 _symmetry_equiv_pos_site_id
 _symmetry_equiv_pos_as_xyz
  1  'x, y, z'
  2  '-x, -y, -z'
  3  '-y+z, x, z'
  4  'y-z, -x, -z'
  5  '-x+z, -y+z, z'
  6  'x-z, y-z, -z'
  7  'y, -x+z, z'
  8  '-y, x-z, -z'
  9  'x-z, -y, -z'
  10  '-x+z, y, z'
  11  '-y, -x, -z'
  12  'y, x, z'
  13  '-x, y-z, -z'
  14  'x, -y+z, z'
  15  'y-z, x-z, -z'
  16  '-y+z, -x+z, z'
loop_
 _atom_site_type_symbol
 _atom_site_label
 _atom_site_symmetry_multiplicity
 _atom_site_fract_x
 _atom_site_fract_y
 _atom_site_fract_z
 _atom_site_occupancy
  Tb  Tb0  2  0.10000000  0.10000100  0.20000100  1.0
  Tb  Tb1  2  0.30002700  0.30002600  0.60005300  1.0
  Y  Y2  1  0.50000000  0.50000000  0.00000000  1.0
  Ni  Ni3  4  0.05000200  0.55000200  0.10000400  1.0
  Ni  Ni4  4  0.15001000  0.65001000  0.30002000  1.0
  Ni  Ni5  2  0.25000000  0.75000000  0.50000000  1.0
  B  B6  2  0.02851100  0.02851000  0.05702100  1.0
  B  B7  2  0.17148700  0.17148600  0.34297300  1.0
  B  B8  2  0.22853800  0.22853800  0.45707600  1.0
  B  B9  2  0.37148500  0.37148500  0.74297000  1.0
  B  B10  2  0.42847300  0.42847200  0.85694500  1.0
  C  C11  2  0.19999000  0.19999000  0.39998000  1.0
  C  C12  2  0.39996600  0.39996700  0.79993300  1.0
  C  C13  1  0.00000000  0.00000000  0.00000000  1.0
