# generated using pymatgen
data_Tb0.75Y2.25Ni6B6C3
_symmetry_space_group_name_H-M   I4/mmm
_cell_length_a   3.54736400
_cell_length_b   3.54736400
_cell_length_c   15.87160275
_cell_angle_alpha   96.41631566
_cell_angle_beta   96.41631566
_cell_angle_gamma   89.99999999
_symmetry_Int_Tables_number   139
_chemical_formula_structural   Tb0.75Y2.25Ni6B6C3
_chemical_formula_sum   'Tb0.75 Y2.25 Ni6 B6 C3'
_cell_volume   197.21490200
_cell_formula_units_Z   1
loop_
 _symmetry_equiv_pos_site_id
 _symmetry_equiv_pos_as_xyz
  1  'x, y, z'
  2  '-x, -y, -z'
  3  '-y+z, x, z'
  4  'y-z, -x, -z'
  5  '-x+z, -y+z, z'
  6  'x-z, y-z, -z'
  7  'y, -x+z, z'
  8  '-y, x-z, -z'
  9  'x-z, -y, -z'
  10  '-x+z, y, z'
  11  '-y, -x, -z'
  12  'y, x, z'
  13  '-x, y-z, -z'
  14  'x, -y+z, z'
  15  'y-z, x-z, -z'
  16  '-y+z, -x+z, z'
loop_
 _atom_site_type_symbol
 _atom_site_label
 _atom_site_symmetry_multiplicity
 _atom_site_fract_x
 _atom_site_fract_y
 _atom_site_fract_z
 _atom_site_occupancy
  Tb  Tb0  1  0.50000000  0.50000000  0.00000000  0.75
  Y  Y1  1  0.50000000  0.50000000  0.00000000  0.25
  Y  Y2  2  0.16666600  0.16666600  0.33333333  1.0
  Ni  Ni3  4  0.08333800  0.58333800  0.16667600  1.0
  Ni  Ni4  2  0.25000000  0.75000000  0.50000000  1.0
  B  B5  2  0.04770400  0.04770400  0.09540800  1.0
  B  B6  2  0.28563000  0.28563000  0.57126000  1.0
  B  B7  2  0.38105600  0.38105600  0.76211200  1.0
  C  C8  2  0.33333333  0.33333333  0.66666667  1.0
  C  C9  1  0.00000000  0.00000000  0.00000000  1.0
