# generated using pymatgen
data_Er1.6Lu2.4B8Ru4
_symmetry_space_group_name_H-M   Pmc2_1
_cell_length_a   5.28100400
_cell_length_b   5.86722800
_cell_length_c   6.31030200
_cell_angle_alpha   90.00000000
_cell_angle_beta   90.00000000
_cell_angle_gamma   90.00000000
_symmetry_Int_Tables_number   26
_chemical_formula_structural   Er1.6Lu2.4B8Ru4
_chemical_formula_sum   'Er1.6 Lu2.4 B8 Ru4'
_cell_volume   195.52378955
_cell_formula_units_Z   1
loop_
 _symmetry_equiv_pos_site_id
 _symmetry_equiv_pos_as_xyz
  1  'x, y, z'
  2  '-x, y+1/2, -z'
  3  '-x, y, z'
  4  'x, y+1/2, -z'
loop_
 _atom_site_type_symbol
 _atom_site_label
 _atom_site_symmetry_multiplicity
 _atom_site_fract_x
 _atom_site_fract_y
 _atom_site_fract_z
 _atom_site_occupancy
  Er  Er0  2  0.50000000  0.48952000  0.58559100  0.8
  Lu  Lu1  2  0.50000000  0.48952000  0.58559100  0.2
  Lu  Lu2  2  0.00000000  0.01077100  0.08475300  1.0
  B  B3  4  0.16489600  0.36635200  0.28496700  1.0
  B  B4  4  0.33216700  0.13284600  0.78861800  1.0
  Ru  Ru5  2  0.00000000  0.18109000  0.56942900  1.0
  Ru  Ru6  2  0.50000000  0.32022300  0.06776000  1.0
