# generated using pymatgen
data_ErB2Ru
_symmetry_space_group_name_H-M   Pnma
_cell_length_a   5.30126200
_cell_length_b   5.89206500
_cell_length_c   6.32858600
_cell_angle_alpha   90.00000000
_cell_angle_beta   90.00000000
_cell_angle_gamma   90.00000000
_symmetry_Int_Tables_number   62
_chemical_formula_structural   ErB2Ru
_chemical_formula_sum   'Er4 B8 Ru4'
_cell_volume   197.67579038
_cell_formula_units_Z   4
loop_
 _symmetry_equiv_pos_site_id
 _symmetry_equiv_pos_as_xyz
  1  'x, y, z'
  2  '-x, -y, -z'
  3  '-x, -y+1/2, z+1/2'
  4  'x, y+1/2, -z+1/2'
  5  '-x+1/2, y+1/2, -z+1/2'
  6  'x+1/2, -y+1/2, z+1/2'
  7  'x+1/2, -y, -z'
  8  '-x+1/2, y, z'
loop_
 _atom_site_type_symbol
 _atom_site_label
 _atom_site_symmetry_multiplicity
 _atom_site_fract_x
 _atom_site_fract_y
 _atom_site_fract_z
 _atom_site_occupancy
  Er  Er0  4  0.25000000  0.01014800  0.66383000  1.0
  B  B1  8  0.08407600  0.36762600  0.46244000  1.0
  Ru  Ru2  4  0.25000000  0.18060800  0.18142400  1.0
