# generated using pymatgen
data_V2B2Ir
_symmetry_space_group_name_H-M   Pnnm
_cell_length_a   3.07241900
_cell_length_b   7.21260400
_cell_length_c   9.29341300
_cell_angle_alpha   90.00000000
_cell_angle_beta   90.00000000
_cell_angle_gamma   90.00000000
_symmetry_Int_Tables_number   58
_chemical_formula_structural   V2B2Ir
_chemical_formula_sum   'V8 B8 Ir4'
_cell_volume   205.94334774
_cell_formula_units_Z   4
loop_
 _symmetry_equiv_pos_site_id
 _symmetry_equiv_pos_as_xyz
  1  'x, y, z'
  2  '-x, -y, -z'
  3  'x, -y, -z'
  4  '-x, y, z'
  5  '-x+1/2, y+1/2, -z+1/2'
  6  'x+1/2, -y+1/2, z+1/2'
  7  '-x+1/2, -y+1/2, z+1/2'
  8  'x+1/2, y+1/2, -z+1/2'
loop_
 _atom_site_type_symbol
 _atom_site_label
 _atom_site_symmetry_multiplicity
 _atom_site_fract_x
 _atom_site_fract_y
 _atom_site_fract_z
 _atom_site_occupancy
  V  V0  4  0.00000000  0.07418500  0.63915200  1.0
  V  V1  4  0.00000000  0.31275900  0.36695800  1.0
  B  B2  4  0.00000000  0.37770200  0.76860900  1.0
  B  B3  4  0.00000000  0.38639700  0.95999300  1.0
  Ir  Ir4  4  0.00000000  0.12669800  0.10434900  1.0
