# generated using pymatgen
data_B2Mo2Ir
_symmetry_space_group_name_H-M   Pnnm
_cell_length_a   3.25741500
_cell_length_b   7.41216100
_cell_length_c   9.45572300
_cell_angle_alpha   90.00000000
_cell_angle_beta   90.00000000
_cell_angle_gamma   90.00000000
_symmetry_Int_Tables_number   58
_chemical_formula_structural   B2Mo2Ir
_chemical_formula_sum   'B8 Mo8 Ir4'
_cell_volume   228.30355669
_cell_formula_units_Z   4
loop_
 _symmetry_equiv_pos_site_id
 _symmetry_equiv_pos_as_xyz
  1  'x, y, z'
  2  '-x, -y, -z'
  3  'x, -y, -z'
  4  '-x, y, z'
  5  '-x+1/2, y+1/2, -z+1/2'
  6  'x+1/2, -y+1/2, z+1/2'
  7  '-x+1/2, -y+1/2, z+1/2'
  8  'x+1/2, y+1/2, -z+1/2'
loop_
 _atom_site_type_symbol
 _atom_site_label
 _atom_site_symmetry_multiplicity
 _atom_site_fract_x
 _atom_site_fract_y
 _atom_site_fract_z
 _atom_site_occupancy
  B  B0  4  0.00000000  0.37544000  0.76294800  1.0
  B  B1  4  0.00000000  0.38376200  0.95974600  1.0
  Mo  Mo2  4  0.00000000  0.07214100  0.63797800  1.0
  Mo  Mo3  4  0.00000000  0.31000800  0.36950000  1.0
  Ir  Ir4  4  0.00000000  0.12081000  0.11116600  1.0
