# generated using pymatgen
data_La1.66666667B3.33333333Rh5
_symmetry_space_group_name_H-M   Fmmm
_cell_length_a   5.55162000
_cell_length_b   5.76491646
_cell_length_c   6.32954148
_cell_angle_alpha   77.80958748
_cell_angle_beta   63.98870295
_cell_angle_gamma   61.21655383
_symmetry_Int_Tables_number   69
_chemical_formula_structural   La1.66666667B3.33333333Rh5
_chemical_formula_sum   'La1.66666667 B3.33333333 Rh5'
_cell_volume   159.56164013
_cell_formula_units_Z   1
loop_
 _symmetry_equiv_pos_site_id
 _symmetry_equiv_pos_as_xyz
  1  'x, y, z'
  2  '-x, -y, -z'
  3  '-x-z, -y, z'
  4  'x+z, y, -z'
  5  'x+y+z, -y, -z'
  6  '-x-y-z, y, z'
  7  '-x-y, y, -z'
  8  'x+y, -y, z'
loop_
 _atom_site_type_symbol
 _atom_site_label
 _atom_site_symmetry_multiplicity
 _atom_site_fract_x
 _atom_site_fract_y
 _atom_site_fract_z
 _atom_site_occupancy
  La  La0  2  0.14365100  0.00000000  0.71269800  0.83333333335
  B  B1  4  0.20873500  0.32332200  0.25920800  0.833333333325
  Rh  Rh2  2  0.00000000  0.50000000  0.00000000  1.0
  Rh  Rh3  2  0.25000000  0.50000000  0.50000000  1.0
  Rh  Rh4  1  0.50000000  0.00000000  0.00000000  1.0
