# generated using pymatgen
data_Tm0.4Lu3.6B8Ru4
_symmetry_space_group_name_H-M   Pnma
_cell_length_a   5.26288100
_cell_length_b   5.82985800
_cell_length_c   6.28854200
_cell_angle_alpha   90.00000000
_cell_angle_beta   90.00000000
_cell_angle_gamma   90.00000000
_symmetry_Int_Tables_number   62
_chemical_formula_structural   Tm0.4Lu3.6B8Ru4
_chemical_formula_sum   'Tm0.4 Lu3.6 B8 Ru4'
_cell_volume   192.94409545
_cell_formula_units_Z   1
loop_
 _symmetry_equiv_pos_site_id
 _symmetry_equiv_pos_as_xyz
  1  'x, y, z'
  2  '-x, -y, -z'
  3  '-x, -y+1/2, z+1/2'
  4  'x, y+1/2, -z+1/2'
  5  '-x+1/2, y+1/2, -z+1/2'
  6  'x+1/2, -y+1/2, z+1/2'
  7  'x+1/2, -y, -z'
  8  '-x+1/2, y, z'
loop_
 _atom_site_type_symbol
 _atom_site_label
 _atom_site_symmetry_multiplicity
 _atom_site_fract_x
 _atom_site_fract_y
 _atom_site_fract_z
 _atom_site_occupancy
  Lu  Lu0  4  0.25000000  0.01127300  0.83442400  0.9
  Tm  Tm1  4  0.25000000  0.01127300  0.83442400  0.1
  B  B2  8  0.08381400  0.36528600  0.03518300  1.0
  Ru  Ru3  4  0.25000000  0.18060500  0.31834400  1.0
