# generated using pymatgen
data_MgNi3B2
_symmetry_space_group_name_H-M   P6_422
_cell_length_a   4.88017200
_cell_length_b   4.88017120
_cell_length_c   8.74669300
_cell_angle_alpha   90.00000000
_cell_angle_beta   90.00000000
_cell_angle_gamma   120.00000544
_symmetry_Int_Tables_number   181
_chemical_formula_structural   MgNi3B2
_chemical_formula_sum   'Mg3 Ni9 B6'
_cell_volume   180.40338321
_cell_formula_units_Z   3
loop_
 _symmetry_equiv_pos_site_id
 _symmetry_equiv_pos_as_xyz
  1  'x, y, z'
  2  'x-y, x, z+2/3'
  3  '-y, x-y, z+1/3'
  4  '-x, -y, z'
  5  '-x+y, -x, z+2/3'
  6  'y, -x+y, z+1/3'
  7  '-y, -x, -z'
  8  '-x, -x+y, -z+1/3'
  9  '-x+y, y, -z+2/3'
  10  'y, x, -z'
  11  'x, x-y, -z+1/3'
  12  'x-y, -y, -z+2/3'
loop_
 _atom_site_type_symbol
 _atom_site_label
 _atom_site_symmetry_multiplicity
 _atom_site_fract_x
 _atom_site_fract_y
 _atom_site_fract_z
 _atom_site_occupancy
  Mg  Mg0  3  0.00000000  0.00000000  0.00000000  1.0
  Ni  Ni1  6  0.00000000  0.50000000  0.45801000  1.0
  Ni  Ni2  3  0.00000000  0.50000000  0.16666700  1.0
  B  B3  6  0.22318700  0.61159300  0.66666667  1.0
