# generated using pymatgen
data_MgB4
_symmetry_space_group_name_H-M   Pnma
_cell_length_a   4.39731000
_cell_length_b   5.48792200
_cell_length_c   7.42380600
_cell_angle_alpha   90.00000000
_cell_angle_beta   90.00000000
_cell_angle_gamma   90.00000000
_symmetry_Int_Tables_number   62
_chemical_formula_structural   MgB4
_chemical_formula_sum   'Mg4 B16'
_cell_volume   179.15198638
_cell_formula_units_Z   4
loop_
 _symmetry_equiv_pos_site_id
 _symmetry_equiv_pos_as_xyz
  1  'x, y, z'
  2  '-x, -y, -z'
  3  '-x, -y+1/2, z+1/2'
  4  'x, y+1/2, -z+1/2'
  5  '-x+1/2, y+1/2, -z+1/2'
  6  'x+1/2, -y+1/2, z+1/2'
  7  'x+1/2, -y, -z'
  8  '-x+1/2, y, z'
loop_
 _atom_site_type_symbol
 _atom_site_label
 _atom_site_symmetry_multiplicity
 _atom_site_fract_x
 _atom_site_fract_y
 _atom_site_fract_z
 _atom_site_occupancy
  Mg  Mg0  4  0.25000000  0.04550800  0.13778500  1.0
  B  B1  8  0.05804800  0.13229900  0.43683600  1.0
  B  B2  4  0.25000000  0.05317900  0.64705800  1.0
  B  B3  4  0.25000000  0.22231500  0.84636600  1.0
