# generated using pymatgen
data_SiB2Mo5
_symmetry_space_group_name_H-M   I4/mcm
_cell_length_a   6.05326200
_cell_length_b   6.05326200
_cell_length_c   7.03238936
_cell_angle_alpha   115.49196055
_cell_angle_beta   115.49196055
_cell_angle_gamma   90.00000000
_symmetry_Int_Tables_number   140
_chemical_formula_structural   SiB2Mo5
_chemical_formula_sum   'Si2 B4 Mo10'
_cell_volume   204.45276295
_cell_formula_units_Z   2
loop_
 _symmetry_equiv_pos_site_id
 _symmetry_equiv_pos_as_xyz
  1  'x, y, z'
  2  '-x, -y, -z'
  3  '-y+z, x, z'
  4  'y-z, -x, -z'
  5  '-x+z, -y+z, z'
  6  'x-z, y-z, -z'
  7  'y, -x+z, z'
  8  '-y, x-z, -z'
  9  'x-z+1/2, -y+1/2, -z'
  10  '-x+z+1/2, y+1/2, z'
  11  '-y+1/2, -x+1/2, -z'
  12  'y+1/2, x+1/2, z'
  13  '-x+1/2, y-z+1/2, -z'
  14  'x+1/2, -y+z+1/2, z'
  15  'y-z+1/2, x-z+1/2, -z'
  16  '-y+z+1/2, -x+z+1/2, z'
loop_
 _atom_site_type_symbol
 _atom_site_label
 _atom_site_symmetry_multiplicity
 _atom_site_fract_x
 _atom_site_fract_y
 _atom_site_fract_z
 _atom_site_occupancy
  Si  Si0  2  0.25000000  0.25000000  0.50000000  1.0
  B  B1  4  0.12095200  0.62095200  0.00000000  1.0
  Mo  Mo2  8  0.02429100  0.19619200  0.72048300  1.0
  Mo  Mo3  2  0.00000000  0.00000000  0.00000000  1.0
