# generated using pymatgen
data_B2Os
_symmetry_space_group_name_H-M   Pmmn
_cell_length_a   2.88728900
_cell_length_b   4.09124100
_cell_length_c   4.70918700
_cell_angle_alpha   90.00000000
_cell_angle_beta   90.00000000
_cell_angle_gamma   90.00000000
_symmetry_Int_Tables_number   59
_chemical_formula_structural   B2Os
_chemical_formula_sum   'B4 Os2'
_cell_volume   55.62771945
_cell_formula_units_Z   2
loop_
 _symmetry_equiv_pos_site_id
 _symmetry_equiv_pos_as_xyz
  1  'x, y, z'
  2  '-x, y, -z'
  3  'x+1/2, -y, -z+1/2'
  4  '-x+1/2, -y, z+1/2'
  5  '-x+1/2, -y, -z+1/2'
  6  'x+1/2, -y, z+1/2'
  7  '-x, y, z'
  8  'x, y, -z'
loop_
 _atom_site_type_symbol
 _atom_site_label
 _atom_site_symmetry_multiplicity
 _atom_site_fract_x
 _atom_site_fract_y
 _atom_site_fract_z
 _atom_site_occupancy
  B  B0  4  0.00000000  0.36196200  0.19408400  1.0
  Os  Os1  2  0.00000000  0.84495900  0.00000000  1.0
