# generated using pymatgen
data_YB2Os
_symmetry_space_group_name_H-M   Pnma
_cell_length_a   5.33289900
_cell_length_b   5.91465700
_cell_length_c   6.39118200
_cell_angle_alpha   90.00000000
_cell_angle_beta   90.00000000
_cell_angle_gamma   90.00000000
_symmetry_Int_Tables_number   62
_chemical_formula_structural   YB2Os
_chemical_formula_sum   'Y4 B8 Os4'
_cell_volume   201.59237804
_cell_formula_units_Z   4
loop_
 _symmetry_equiv_pos_site_id
 _symmetry_equiv_pos_as_xyz
  1  'x, y, z'
  2  '-x, -y, -z'
  3  '-x, -y+1/2, z+1/2'
  4  'x, y+1/2, -z+1/2'
  5  '-x+1/2, y+1/2, -z+1/2'
  6  'x+1/2, -y+1/2, z+1/2'
  7  'x+1/2, -y, -z'
  8  '-x+1/2, y, z'
loop_
 _atom_site_type_symbol
 _atom_site_label
 _atom_site_symmetry_multiplicity
 _atom_site_fract_x
 _atom_site_fract_y
 _atom_site_fract_z
 _atom_site_occupancy
  Y  Y0  4  0.25000000  0.01080200  0.33544800  1.0
  B  B1  8  0.08209100  0.36385600  0.53986300  1.0
  Os  Os2  4  0.25000000  0.17585000  0.81818700  1.0
