# generated using pymatgen
data_TmB2Os
_symmetry_space_group_name_H-M   Pnma
_cell_length_a   5.27989500
_cell_length_b   5.84186400
_cell_length_c   6.32758100
_cell_angle_alpha   90.00000000
_cell_angle_beta   90.00000000
_cell_angle_gamma   90.00000000
_symmetry_Int_Tables_number   62
_chemical_formula_structural   TmB2Os
_chemical_formula_sum   'Tm4 B8 Os4'
_cell_volume   195.17061989
_cell_formula_units_Z   4
loop_
 _symmetry_equiv_pos_site_id
 _symmetry_equiv_pos_as_xyz
  1  'x, y, z'
  2  '-x, -y, -z'
  3  '-x, -y+1/2, z+1/2'
  4  'x, y+1/2, -z+1/2'
  5  '-x+1/2, y+1/2, -z+1/2'
  6  'x+1/2, -y+1/2, z+1/2'
  7  'x+1/2, -y, -z'
  8  '-x+1/2, y, z'
loop_
 _atom_site_type_symbol
 _atom_site_label
 _atom_site_symmetry_multiplicity
 _atom_site_fract_x
 _atom_site_fract_y
 _atom_site_fract_z
 _atom_site_occupancy
  Tm  Tm0  4  0.25000000  0.01063700  0.33422400  1.0
  B  B1  8  0.08143600  0.36145200  0.53794500  1.0
  Os  Os2  4  0.25000000  0.17684800  0.81771100  1.0
