# generated using pymatgen
data_TbB2Ru
_symmetry_space_group_name_H-M   Pnma
_cell_length_a   5.35173600
_cell_length_b   5.93961800
_cell_length_c   6.37029800
_cell_angle_alpha   90.00000000
_cell_angle_beta   90.00000000
_cell_angle_gamma   90.00000000
_symmetry_Int_Tables_number   62
_chemical_formula_structural   TbB2Ru
_chemical_formula_sum   'Tb4 B8 Ru4'
_cell_volume   202.49436643
_cell_formula_units_Z   4
loop_
 _symmetry_equiv_pos_site_id
 _symmetry_equiv_pos_as_xyz
  1  'x, y, z'
  2  '-x, -y, -z'
  3  '-x, -y+1/2, z+1/2'
  4  'x, y+1/2, -z+1/2'
  5  '-x+1/2, y+1/2, -z+1/2'
  6  'x+1/2, -y+1/2, z+1/2'
  7  'x+1/2, -y, -z'
  8  '-x+1/2, y, z'
loop_
 _atom_site_type_symbol
 _atom_site_label
 _atom_site_symmetry_multiplicity
 _atom_site_fract_x
 _atom_site_fract_y
 _atom_site_fract_z
 _atom_site_occupancy
  Tb  Tb0  4  0.25000000  0.00947700  0.33803300  1.0
  B  B1  8  0.08470700  0.37021000  0.53898900  1.0
  Ru  Ru2  4  0.25000000  0.18119000  0.81899100  1.0
