# generated using pymatgen
data_TmB2Ru
_symmetry_space_group_name_H-M   Pnma
_cell_length_a   5.28656400
_cell_length_b   5.85784700
_cell_length_c   6.31439000
_cell_angle_alpha   90.00000000
_cell_angle_beta   90.00000000
_cell_angle_gamma   90.00000000
_symmetry_Int_Tables_number   62
_chemical_formula_structural   TmB2Ru
_chemical_formula_sum   'Tm4 B8 Ru4'
_cell_volume   195.54329116
_cell_formula_units_Z   4
loop_
 _symmetry_equiv_pos_site_id
 _symmetry_equiv_pos_as_xyz
  1  'x, y, z'
  2  '-x, -y, -z'
  3  '-x, -y+1/2, z+1/2'
  4  'x, y+1/2, -z+1/2'
  5  '-x+1/2, y+1/2, -z+1/2'
  6  'x+1/2, -y+1/2, z+1/2'
  7  'x+1/2, -y, -z'
  8  '-x+1/2, y, z'
loop_
 _atom_site_type_symbol
 _atom_site_label
 _atom_site_symmetry_multiplicity
 _atom_site_fract_x
 _atom_site_fract_y
 _atom_site_fract_z
 _atom_site_occupancy
  Tm  Tm0  4  0.25000000  0.01130700  0.33559100  1.0
  B  B1  8  0.08385100  0.36693900  0.53665200  1.0
  Ru  Ru2  4  0.25000000  0.18191100  0.81816200  1.0
