# generated using pymatgen
data_B3Rh7
_symmetry_space_group_name_H-M   P6_3mc
_cell_length_a   4.89047100
_cell_length_b   7.51640800
_cell_length_c   7.51640863
_cell_angle_alpha   119.99999723
_cell_angle_beta   90.00000000
_cell_angle_gamma   90.00000000
_symmetry_Int_Tables_number   186
_chemical_formula_structural   B3Rh7
_chemical_formula_sum   'B6 Rh14'
_cell_volume   239.27760903
_cell_formula_units_Z   2
loop_
 _symmetry_equiv_pos_site_id
 _symmetry_equiv_pos_as_xyz
  1  'x, y, z'
  2  'x+1/2, y-z, y'
  3  'x, -z, y-z'
  4  'x+1/2, -y, -z'
  5  'x, -y+z, -y'
  6  'x+1/2, z, -y+z'
  7  'x+1/2, -y, -y+z'
  8  'x, -y+z, z'
  9  'x+1/2, z, y'
  10  'x, y, y-z'
  11  'x+1/2, y-z, -z'
  12  'x, -z, -y'
loop_
 _atom_site_type_symbol
 _atom_site_label
 _atom_site_symmetry_multiplicity
 _atom_site_fract_x
 _atom_site_fract_y
 _atom_site_fract_z
 _atom_site_occupancy
  B  B0  6  0.16538900  0.37675300  0.18837600  1.0
  Rh  Rh1  6  0.27582800  0.12280300  0.24560600  1.0
  Rh  Rh2  6  0.41418600  0.54414000  0.08828000  1.0
  Rh  Rh3  2  0.42227200  0.33333333  0.66666667  1.0
