# generated using pymatgen
data_B4C
_symmetry_space_group_name_H-M   R-3m
_cell_length_a   5.17473800
_cell_length_b   5.17473800
_cell_length_c   5.17473800
_cell_angle_alpha   91.20952889
_cell_angle_beta   91.20952889
_cell_angle_gamma   91.20952949
_symmetry_Int_Tables_number   166
_chemical_formula_structural   B4C
_chemical_formula_sum   'B12 C3'
_cell_volume   138.47473616
_cell_formula_units_Z   3
loop_
 _symmetry_equiv_pos_site_id
 _symmetry_equiv_pos_as_xyz
  1  'x, y, z'
  2  '-x, -y, -z'
  3  'z, x, y'
  4  '-z, -x, -y'
  5  'y, z, x'
  6  '-y, -z, -x'
  7  '-z, -y, -x'
  8  'z, y, x'
  9  '-y, -x, -z'
  10  'y, x, z'
  11  '-x, -z, -y'
  12  'x, z, y'
loop_
 _atom_site_type_symbol
 _atom_site_label
 _atom_site_symmetry_multiplicity
 _atom_site_fract_x
 _atom_site_fract_y
 _atom_site_fract_z
 _atom_site_occupancy
  B  B0  6  0.03853200  0.38635100  0.38635100  1.0
  B  B1  6  0.08003100  0.83739400  0.83739400  1.0
  C  C2  2  0.35054100  0.35054100  0.35054100  1.0
  C  C3  1  0.50000000  0.50000000  0.50000000  1.0
