# generated using pymatgen
data_B4C
_symmetry_space_group_name_H-M   P1
_cell_length_a   5.11881548
_cell_length_b   5.11891100
_cell_length_c   22.36804765
_cell_angle_alpha   94.78121753
_cell_angle_beta   92.91352383
_cell_angle_gamma   114.43464863
_symmetry_Int_Tables_number   1
_chemical_formula_structural   B4C
_chemical_formula_sum   'B56 C14'
_cell_volume   529.39669221
_cell_formula_units_Z   14
loop_
 _symmetry_equiv_pos_site_id
 _symmetry_equiv_pos_as_xyz
  1  'x, y, z'
loop_
 _atom_site_type_symbol
 _atom_site_label
 _atom_site_symmetry_multiplicity
 _atom_site_fract_x
 _atom_site_fract_y
 _atom_site_fract_z
 _atom_site_occupancy
  B  B0  1  0.03989500  0.63880400  0.16016700  1.0
  B  B1  1  0.06110500  0.87077700  0.93431200  1.0
  B  B2  1  0.06285900  0.67081900  0.73659900  1.0
  B  B3  1  0.06438400  0.20430200  0.59977100  1.0
  B  B4  1  0.07747900  0.67887000  0.24034600  1.0
  B  B5  1  0.12264600  0.91951900  0.55956600  1.0
  B  B6  1  0.12892700  0.93632200  0.06592900  1.0
  B  B7  1  0.13105300  0.73742900  0.86779300  1.0
  B  B8  1  0.13207700  0.39615200  0.19895900  1.0
  B  B9  1  0.15815200  0.96090600  0.64010000  1.0
  B  B10  1  0.19831400  0.93170800  0.80094900  1.0
  B  B11  1  0.20421600  0.26469000  0.80006700  1.0
  B  B12  1  0.23145900  0.24974600  0.96214500  1.0
  B  B13  1  0.26421100  0.27373300  0.53520300  1.0
  B  B14  1  0.27107100  0.46168300  0.73402600  1.0
  B  B15  1  0.27122100  0.28945900  0.04255700  1.0
  B  B16  1  0.27386500  0.79175600  0.39793500  1.0
  B  B17  1  0.32612500  0.00725800  0.00143600  1.0
  B  B18  1  0.32745000  0.33714700  0.66581400  1.0
  B  B19  1  0.32975700  0.50785400  0.35728300  1.0
  B  B20  1  0.33780900  0.52938900  0.86464400  1.0
  B  B21  1  0.36724700  0.55064000  0.43753900  1.0
  B  B22  1  0.39493100  0.54860500  0.59967100  1.0
  B  B23  1  0.44323000  0.83510900  0.75981100  1.0
  B  B24  1  0.46635900  0.40399900  0.20073600  1.0
  B  B25  1  0.46925600  0.06339300  0.53201000  1.0
  B  B26  1  0.47178900  0.86169700  0.33408000  1.0
  B  B27  1  0.48197400  0.87935700  0.84011300  1.0
  B  B28  1  0.52096800  0.11987600  0.16016800  1.0
  B  B29  1  0.53396200  0.12625600  0.66318100  1.0
  B  B30  1  0.53516200  0.92768700  0.46526400  1.0
  B  B31  1  0.54861700  0.59532100  0.80017300  1.0
  B  B32  1  0.56109400  0.16249400  0.24034700  1.0
  B  B33  1  0.60531200  0.12323700  0.39808400  1.0
  B  B34  1  0.61083600  0.45582900  0.39729600  1.0
  B  B35  1  0.63894700  0.44157100  0.55964000  1.0
  B  B36  1  0.65789600  0.01212900  0.00254900  1.0
  B  B37  1  0.66478500  0.47138000  0.13659300  1.0
  B  B38  1  0.67502600  0.48354600  0.63992500  1.0
  B  B39  1  0.71173400  0.72932800  0.96213100  1.0
  B  B40  1  0.73054300  0.19741100  0.59886300  1.0
  B  B41  1  0.73081000  0.53739900  0.26863300  1.0
  B  B42  1  0.74185400  0.72080200  0.46209900  1.0
  B  B43  1  0.75228500  0.77064800  0.04257700  1.0
  B  B44  1  0.79632800  0.73397700  0.20073600  1.0
  B  B45  1  0.80239300  0.06649700  0.19896300  1.0
  B  B46  1  0.84871100  0.02700300  0.35730500  1.0
  B  B47  1  0.85770800  0.08034400  0.93749800  1.0
  B  B48  1  0.88631100  0.06910700  0.43753900  1.0
  B  B49  1  0.92032600  0.31805100  0.75962400  1.0
  B  B50  1  0.92344600  0.14678400  0.07077800  1.0
  B  B51  1  0.93698500  0.32585500  0.26324800  1.0
  B  B52  1  0.94070400  0.78573600  0.39711700  1.0
  B  B53  1  0.95949700  0.36285900  0.84020800  1.0
  B  B54  1  0.98987000  0.34399600  0.00273300  1.0
  B  B55  1  0.99322800  0.67436600  0.00158800  1.0
  C  C56  1  0.06081800  0.26039000  0.32179100  1.0
  C  C57  1  0.15851500  0.31252500  0.47200100  1.0
  C  C58  1  0.24770700  0.87707700  0.12517100  1.0
  C  C59  1  0.35273500  0.92093100  0.27403100  1.0
  C  C60  1  0.39882200  0.87682200  0.59911300  1.0
  C  C61  1  0.43972600  0.48712600  0.92784600  1.0
  C  C62  1  0.54769700  0.52756400  0.07585800  1.0
  C  C63  1  0.65076300  0.06819300  0.72386300  1.0
  C  C64  1  0.67227700  0.66109700  0.33381100  1.0
  C  C65  1  0.75080700  0.12511500  0.87530600  1.0
  C  C66  1  0.85085900  0.67419600  0.52435500  1.0
  C  C67  1  0.86361100  0.27166700  0.13578200  1.0
  C  C68  1  0.87748100  0.59970000  0.80072800  1.0
  C  C69  1  0.94398600  0.72698500  0.67592200  1.0
