# generated using pymatgen
data_DyB4(IrRh)2
_symmetry_space_group_name_H-M   P4_2mc
_cell_length_a   5.38017200
_cell_length_b   5.38017200
_cell_length_c   7.47309900
_cell_angle_alpha   90.00000000
_cell_angle_beta   90.00000000
_cell_angle_gamma   90.00000000
_symmetry_Int_Tables_number   105
_chemical_formula_structural   DyB4(IrRh)2
_chemical_formula_sum   'Dy2 B8 Ir4 Rh4'
_cell_volume   216.31819753
_cell_formula_units_Z   2
loop_
 _symmetry_equiv_pos_site_id
 _symmetry_equiv_pos_as_xyz
  1  'x, y, z'
  2  '-y, x, z+1/2'
  3  '-x, -y, z'
  4  'y, -x, z+1/2'
  5  '-x, y, z'
  6  'y, x, z+1/2'
  7  'x, -y, z'
  8  '-y, -x, z+1/2'
loop_
 _atom_site_type_symbol
 _atom_site_label
 _atom_site_symmetry_multiplicity
 _atom_site_fract_x
 _atom_site_fract_y
 _atom_site_fract_z
 _atom_site_occupancy
  Dy  Dy0  2  0.00000000  0.50000000  0.74784300  1.0
  B  B1  4  0.00000000  0.17026100  0.09805400  1.0
  B  B2  4  0.32873900  0.50000000  0.40386500  1.0
  Ir  Ir3  4  0.24798600  0.50000000  0.10526200  1.0
  Rh  Rh4  4  0.00000000  0.25056400  0.39389600  1.0
