# generated using pymatgen
data_Ho1.626Er0.374B8Rh8
_symmetry_space_group_name_H-M   P4_2/nmc
_cell_length_a   5.33443700
_cell_length_b   5.33443700
_cell_length_c   7.44251500
_cell_angle_alpha   90.00000000
_cell_angle_beta   90.00000000
_cell_angle_gamma   90.00000000
_symmetry_Int_Tables_number   137
_chemical_formula_structural   Ho1.626Er0.374B8Rh8
_chemical_formula_sum   'Ho1.626 Er0.374 B8 Rh8'
_cell_volume   211.78583010
_cell_formula_units_Z   1
loop_
 _symmetry_equiv_pos_site_id
 _symmetry_equiv_pos_as_xyz
  1  'x, y, z'
  2  '-y+1/2, x+1/2, z+1/2'
  3  '-x, -y, z'
  4  'y+1/2, -x+1/2, z+1/2'
  5  'x+1/2, -y+1/2, -z+1/2'
  6  '-y, -x, -z'
  7  '-x+1/2, y+1/2, -z+1/2'
  8  'y, x, -z'
  9  '-x+1/2, -y+1/2, -z+1/2'
  10  'y, -x, -z'
  11  'x+1/2, y+1/2, -z+1/2'
  12  '-y, x, -z'
  13  '-x, y, z'
  14  'y+1/2, x+1/2, z+1/2'
  15  'x, -y, z'
  16  '-y+1/2, -x+1/2, z+1/2'
loop_
 _atom_site_type_symbol
 _atom_site_label
 _atom_site_symmetry_multiplicity
 _atom_site_fract_x
 _atom_site_fract_y
 _atom_site_fract_z
 _atom_site_occupancy
  Ho  Ho0  2  0.00000000  0.00000000  0.00000000  0.813
  Er  Er1  2  0.00000000  0.00000000  0.00000000  0.187
  B  B2  8  0.00000000  0.33058800  0.65086700  1.0
  Rh  Rh3  8  0.00000000  0.24888400  0.35538400  1.0
