# generated using pymatgen
data_Y1.12Er2.88B16Rh16
_symmetry_space_group_name_H-M   I4_1/acd
_cell_length_a   7.54246200
_cell_length_b   7.54246200
_cell_length_c   9.16373789
_cell_angle_alpha   114.30151804
_cell_angle_beta   114.30151804
_cell_angle_gamma   89.99999999
_symmetry_Int_Tables_number   142
_chemical_formula_structural   Y1.12Er2.88B16Rh16
_chemical_formula_sum   'Y1.12 Er2.88 B16 Rh16'
_cell_volume   423.92499664
_cell_formula_units_Z   1
loop_
 _symmetry_equiv_pos_site_id
 _symmetry_equiv_pos_as_xyz
  1  'x, y, z'
  2  '-y+z+3/4, x+1/4, z+1/2'
  3  '-x+z, -y+z, z'
  4  'y+3/4, -x+z+1/4, z+1/2'
  5  'x-z+1/4, -y+3/4, -z+1/2'
  6  '-y+1/2, -x+1/2, -z'
  7  '-x+1/4, y-z+3/4, -z+1/2'
  8  'y-z+1/2, x-z+1/2, -z'
  9  '-x+3/4, -y+1/4, -z+1/2'
  10  'y-z, -x, -z'
  11  'x-z+3/4, y-z+1/4, -z+1/2'
  12  '-y, x-z, -z'
  13  '-x+z+1/2, y+1/2, z'
  14  'y+1/4, x+3/4, z+1/2'
  15  'x+1/2, -y+z+1/2, z'
  16  '-y+z+1/4, -x+z+3/4, z+1/2'
loop_
 _atom_site_type_symbol
 _atom_site_label
 _atom_site_symmetry_multiplicity
 _atom_site_fract_x
 _atom_site_fract_y
 _atom_site_fract_z
 _atom_site_occupancy
  Er  Er0  4  0.00000000  0.50000000  0.00000000  0.72
  Y  Y1  4  0.00000000  0.50000000  0.00000000  0.28
  B  B2  16  0.00256200  0.19407700  0.66428000  1.0
  Rh  Rh3  16  0.03294000  0.57057000  0.37293500  1.0
