# generated using pymatgen
data_Lu(BRh)4
_symmetry_space_group_name_H-M   Ccce
_cell_length_a   7.50733800
_cell_length_b   7.51271000
_cell_length_c   11.80546691
_cell_angle_alpha   90.00000000
_cell_angle_beta   108.53961313
_cell_angle_gamma   90.00000000
_symmetry_Int_Tables_number   68
_chemical_formula_structural   Lu(BRh)4
_chemical_formula_sum   'Lu6 B24 Rh24'
_cell_volume   631.27961354
_cell_formula_units_Z   6
loop_
 _symmetry_equiv_pos_site_id
 _symmetry_equiv_pos_as_xyz
  1  'x, y, z'
  2  '-x, y, -z'
  3  'x-z, -y, -z'
  4  '-x+z, -y, z'
  5  '-x+1/2, -y+1/2, -z'
  6  'x+1/2, -y+1/2, z'
  7  '-x+z+1/2, y+1/2, z'
  8  'x-z+1/2, y+1/2, -z'
loop_
 _atom_site_type_symbol
 _atom_site_label
 _atom_site_symmetry_multiplicity
 _atom_site_fract_x
 _atom_site_fract_y
 _atom_site_fract_z
 _atom_site_occupancy
  Lu  Lu0  4  0.16683200  0.00000000  0.33366400  1.0
  Lu  Lu1  2  0.00000000  0.50000000  0.00000000  1.0
  B  B2  8  0.02656700  0.32802800  0.77916600  1.0
  B  B3  8  0.05206700  0.63632900  0.44311500  1.0
  B  B4  8  0.09102200  0.16574200  0.89310600  1.0
  Rh  Rh5  8  0.02856500  0.61435200  0.74893200  1.0
  Rh  Rh6  8  0.09248900  0.34405100  0.41740500  1.0
  Rh  Rh7  8  0.10643400  0.87598900  0.91417600  1.0
