# generated using pymatgen
data_Lu(BRu)4
_symmetry_space_group_name_H-M   I4_1/acd
_cell_length_a   7.45673400
_cell_length_b   7.45673400
_cell_length_c   9.17382212
_cell_angle_alpha   113.97974729
_cell_angle_beta   113.97974729
_cell_angle_gamma   90.00000000
_symmetry_Int_Tables_number   142
_chemical_formula_structural   Lu(BRu)4
_chemical_formula_sum   'Lu4 B16 Ru16'
_cell_volume   417.42017589
_cell_formula_units_Z   4
loop_
 _symmetry_equiv_pos_site_id
 _symmetry_equiv_pos_as_xyz
  1  'x, y, z'
  2  '-y+z+3/4, x+1/4, z+1/2'
  3  '-x+z, -y+z, z'
  4  'y+3/4, -x+z+1/4, z+1/2'
  5  'x-z+1/4, -y+3/4, -z+1/2'
  6  '-y+1/2, -x+1/2, -z'
  7  '-x+1/4, y-z+3/4, -z+1/2'
  8  'y-z+1/2, x-z+1/2, -z'
  9  '-x+3/4, -y+1/4, -z+1/2'
  10  'y-z, -x, -z'
  11  'x-z+3/4, y-z+1/4, -z+1/2'
  12  '-y, x-z, -z'
  13  '-x+z+1/2, y+1/2, z'
  14  'y+1/4, x+3/4, z+1/2'
  15  'x+1/2, -y+z+1/2, z'
  16  '-y+z+1/4, -x+z+3/4, z+1/2'
loop_
 _atom_site_type_symbol
 _atom_site_label
 _atom_site_symmetry_multiplicity
 _atom_site_fract_x
 _atom_site_fract_y
 _atom_site_fract_z
 _atom_site_occupancy
  Lu  Lu0  4  0.00000000  0.50000000  0.00000000  1.0
  B  B1  16  0.00066400  0.19344100  0.66228100  1.0
  Ru  Ru2  16  0.03754400  0.57330500  0.37605300  1.0
