# generated using pymatgen
data_YB4Os
_symmetry_space_group_name_H-M   Pbam
_cell_length_a   3.57084400
_cell_length_b   5.97825200
_cell_length_c   11.56774400
_cell_angle_alpha   90.00000000
_cell_angle_beta   90.00000000
_cell_angle_gamma   90.00000000
_symmetry_Int_Tables_number   55
_chemical_formula_structural   YB4Os
_chemical_formula_sum   'Y4 B16 Os4'
_cell_volume   246.94131940
_cell_formula_units_Z   4
loop_
 _symmetry_equiv_pos_site_id
 _symmetry_equiv_pos_as_xyz
  1  'x, y, z'
  2  '-x, -y, -z'
  3  'x, -y, -z'
  4  '-x, y, z'
  5  '-x, y+1/2, -z+1/2'
  6  'x, -y+1/2, z+1/2'
  7  '-x, -y+1/2, z+1/2'
  8  'x, y+1/2, -z+1/2'
loop_
 _atom_site_type_symbol
 _atom_site_label
 _atom_site_symmetry_multiplicity
 _atom_site_fract_x
 _atom_site_fract_y
 _atom_site_fract_z
 _atom_site_occupancy
  Y  Y0  4  0.00000000  0.12813600  0.85015600  1.0
  B  B1  4  0.50000000  0.02527800  0.30857300  1.0
  B  B2  4  0.50000000  0.11250400  0.45342000  1.0
  B  B3  4  0.50000000  0.13639000  0.03023800  1.0
  B  B4  4  0.50000000  0.21128700  0.18572600  1.0
  Os  Os5  4  0.00000000  0.14046600  0.59338800  1.0
