# generated using pymatgen
data_Yb(BRh)4
_symmetry_space_group_name_H-M   Ccce
_cell_length_a   7.47657600
_cell_length_b   7.52369300
_cell_length_c   11.83961084
_cell_angle_alpha   90.00000000
_cell_angle_beta   108.40574400
_cell_angle_gamma   90.00000000
_symmetry_Int_Tables_number   68
_chemical_formula_structural   Yb(BRh)4
_chemical_formula_sum   'Yb6 B24 Rh24'
_cell_volume   631.92600482
_cell_formula_units_Z   6
loop_
 _symmetry_equiv_pos_site_id
 _symmetry_equiv_pos_as_xyz
  1  'x, y, z'
  2  '-x+1/2, y, -z'
  3  'x-z+1/2, -y+1/2, -z'
  4  '-x+z, -y+1/2, z'
  5  '-x, -y, -z'
  6  'x+1/2, -y, z'
  7  '-x+z+1/2, y+1/2, z'
  8  'x-z, y+1/2, -z'
loop_
 _atom_site_type_symbol
 _atom_site_label
 _atom_site_symmetry_multiplicity
 _atom_site_fract_x
 _atom_site_fract_y
 _atom_site_fract_z
 _atom_site_occupancy
  Yb  Yb0  4  0.08276800  0.75000000  0.16553600  1.0
  Yb  Yb1  2  0.25000000  0.25000000  0.50000000  1.0
  B  B2  8  0.00293000  0.42035000  0.27923700  1.0
  B  B3  8  0.04922800  0.58631600  0.39354900  1.0
  B  B4  8  0.13866000  0.88776900  0.94296900  1.0
  Rh  Rh5  8  0.02765100  0.86559100  0.75168100  1.0
  Rh  Rh6  8  0.06163000  0.87388500  0.41571200  1.0
  Rh  Rh7  8  0.07585000  0.59752100  0.91555000  1.0
