# generated using pymatgen
data_Tm(BRh)4
_symmetry_space_group_name_H-M   Ccce
_cell_length_a   7.52081700
_cell_length_b   7.52202000
_cell_length_c   11.79260912
_cell_angle_alpha   71.40180684
_cell_angle_beta   90.00000000
_cell_angle_gamma   90.00000000
_symmetry_Int_Tables_number   68
_chemical_formula_structural   Tm(BRh)4
_chemical_formula_sum   'Tm6 B24 Rh24'
_cell_volume   632.28990316
_cell_formula_units_Z   6
loop_
 _symmetry_equiv_pos_site_id
 _symmetry_equiv_pos_as_xyz
  1  'x, y, z'
  2  'x, -y+1/2, -z'
  3  '-x+1/2, y+z+1/2, -z'
  4  '-x+1/2, -y-z, z'
  5  '-x, -y, -z'
  6  '-x, y+1/2, z'
  7  'x+1/2, -y-z+1/2, z'
  8  'x+1/2, y+z, -z'
loop_
 _atom_site_type_symbol
 _atom_site_label
 _atom_site_symmetry_multiplicity
 _atom_site_fract_x
 _atom_site_fract_y
 _atom_site_fract_z
 _atom_site_occupancy
  Tm  Tm0  4  0.25000000  0.08380900  0.83238300  1.0
  Tm  Tm1  2  0.25000000  0.75000000  0.50000000  1.0
  B  B2  8  0.07572800  0.50438800  0.72112800  1.0
  B  B3  8  0.08663700  0.05260900  0.60838600  1.0
  B  B4  8  0.11132300  0.69925500  0.94259500  1.0
  Rh  Rh5  8  0.09521000  0.07461000  0.08210200  1.0
  Rh  Rh6  8  0.12392300  0.14092800  0.41558000  1.0
  Rh  Rh7  8  0.13721400  0.72093900  0.25028700  1.0
