# generated using pymatgen
data_Th0.5Sc1.5B8Rh8
_symmetry_space_group_name_H-M   P-4m2
_cell_length_a   5.35058300
_cell_length_b   5.35058300
_cell_length_c   7.51426600
_cell_angle_alpha   90.00000000
_cell_angle_beta   90.00000000
_cell_angle_gamma   90.00000000
_symmetry_Int_Tables_number   115
_chemical_formula_structural   Th0.5Sc1.5B8Rh8
_chemical_formula_sum   'Th0.5 Sc1.5 B8 Rh8'
_cell_volume   215.12395588
_cell_formula_units_Z   1
loop_
 _symmetry_equiv_pos_site_id
 _symmetry_equiv_pos_as_xyz
  1  'x, y, z'
  2  'y, -x, -z'
  3  '-x, -y, z'
  4  '-y, x, -z'
  5  '-x, y, z'
  6  '-y, -x, -z'
  7  'x, -y, z'
  8  'y, x, -z'
loop_
 _atom_site_type_symbol
 _atom_site_label
 _atom_site_symmetry_multiplicity
 _atom_site_fract_x
 _atom_site_fract_y
 _atom_site_fract_z
 _atom_site_occupancy
  Th  Th0  1  0.00000000  0.00000000  0.50000000  0.5
  Sc  Sc1  1  0.00000000  0.00000000  0.50000000  0.5
  Sc  Sc2  1  0.50000000  0.50000000  0.00000000  1.0
  B  B3  4  0.00000000  0.32928300  0.85180200  1.0
  B  B4  4  0.16672300  0.50000000  0.34933900  1.0
  Rh  Rh5  4  0.00000000  0.25099000  0.14121500  1.0
  Rh  Rh6  4  0.25176100  0.50000000  0.65248700  1.0
