# generated using pymatgen
data_Sm(BRu)4
_symmetry_space_group_name_H-M   I4_1/acd
_cell_length_a   7.53471000
_cell_length_b   7.53471000
_cell_length_c   9.23877457
_cell_angle_alpha   114.06523325
_cell_angle_beta   114.06523326
_cell_angle_gamma   89.99999999
_symmetry_Int_Tables_number   142
_chemical_formula_structural   Sm(BRu)4
_chemical_formula_sum   'Sm4 B16 Ru16'
_cell_volume   428.50164028
_cell_formula_units_Z   4
loop_
 _symmetry_equiv_pos_site_id
 _symmetry_equiv_pos_as_xyz
  1  'x, y, z'
  2  '-y+z+3/4, x+1/4, z+1/2'
  3  '-x+z, -y+z, z'
  4  'y+3/4, -x+z+1/4, z+1/2'
  5  'x-z+1/4, -y+3/4, -z+1/2'
  6  '-y+1/2, -x+1/2, -z'
  7  '-x+1/4, y-z+3/4, -z+1/2'
  8  'y-z+1/2, x-z+1/2, -z'
  9  '-x+3/4, -y+1/4, -z+1/2'
  10  'y-z, -x, -z'
  11  'x-z+3/4, y-z+1/4, -z+1/2'
  12  '-y, x-z, -z'
  13  '-x+z+1/2, y+1/2, z'
  14  'y+1/4, x+3/4, z+1/2'
  15  'x+1/2, -y+z+1/2, z'
  16  '-y+z+1/4, -x+z+3/4, z+1/2'
loop_
 _atom_site_type_symbol
 _atom_site_label
 _atom_site_symmetry_multiplicity
 _atom_site_fract_x
 _atom_site_fract_y
 _atom_site_fract_z
 _atom_site_occupancy
  Sm  Sm0  4  0.00000000  0.50000000  0.00000000  1.0
  B  B1  16  0.02723300  0.83585800  0.33631100  1.0
  Ru  Ru2  16  0.04162300  0.57277700  0.37646500  1.0
