# generated using pymatgen
data_Ta3B4
_symmetry_space_group_name_H-M   Immm
_cell_length_a   3.14599600
_cell_length_b   3.31016200
_cell_length_c   7.39626829
_cell_angle_alpha   102.93070372
_cell_angle_beta   102.27913369
_cell_angle_gamma   89.99999999
_symmetry_Int_Tables_number   71
_chemical_formula_structural   Ta3B4
_chemical_formula_sum   'Ta3 B4'
_cell_volume   73.26073475
_cell_formula_units_Z   1
loop_
 _symmetry_equiv_pos_site_id
 _symmetry_equiv_pos_as_xyz
  1  'x, y, z'
  2  '-x, -y, -z'
  3  '-x+z, -y+z, z'
  4  'x-z, y-z, -z'
  5  'x-z, -y, -z'
  6  '-x+z, y, z'
  7  '-x, y-z, -z'
  8  'x, -y+z, z'
loop_
 _atom_site_type_symbol
 _atom_site_label
 _atom_site_symmetry_multiplicity
 _atom_site_fract_x
 _atom_site_fract_y
 _atom_site_fract_z
 _atom_site_occupancy
  Ta  Ta0  2  0.18526200  0.18526200  0.37052400  1.0
  Ta  Ta1  1  0.50000000  0.00000000  0.00000000  1.0
  B  B2  2  0.06424100  0.56424100  0.12848200  1.0
  B  B3  2  0.36652300  0.36652300  0.73304600  1.0
