# generated using pymatgen
data_Ta0.3B5Mo1.7
_symmetry_space_group_name_H-M   R-3m
_cell_length_a   3.08606214
_cell_length_b   3.08606214
_cell_length_c   7.38317517
_cell_angle_alpha   77.93664750
_cell_angle_beta   77.93664750
_cell_angle_gamma   59.99999697
_symmetry_Int_Tables_number   166
_chemical_formula_structural   Ta0.3B5Mo1.7
_chemical_formula_sum   'Ta0.3 B5 Mo1.7'
_cell_volume   59.09541987
_cell_formula_units_Z   1
loop_
 _symmetry_equiv_pos_site_id
 _symmetry_equiv_pos_as_xyz
  1  'x, y, z'
  2  '-x, -y, -z'
  3  '-x-y-z, x, z'
  4  'x+y+z, -x, -z'
  5  'y, -x-y-z, z'
  6  '-y, x+y+z, -z'
  7  '-x, x+y+z, -z'
  8  'x, -x-y-z, z'
  9  'x+y+z, -y, -z'
  10  '-x-y-z, y, z'
  11  '-y, -x, -z'
  12  'y, x, z'
loop_
 _atom_site_type_symbol
 _atom_site_label
 _atom_site_symmetry_multiplicity
 _atom_site_fract_x
 _atom_site_fract_y
 _atom_site_fract_z
 _atom_site_occupancy
  B  B0  2  0.18426200  0.18426200  0.44721400  1.0
  B  B1  2  0.33159000  0.33159000  0.00523000  1.0
  B  B2  1  0.50000000  0.50000000  0.50000000  1.0
  Mo  Mo3  2  0.07558600  0.07558600  0.77324200  0.85
  Ta  Ta4  2  0.07558600  0.07558600  0.77324200  0.15
