# generated using pymatgen
data_La3(B3Ru4)2
_symmetry_space_group_name_H-M   Fmmm
_cell_length_a   5.58773400
_cell_length_b   5.65958485
_cell_length_c   9.24147980
_cell_angle_alpha   81.41711162
_cell_angle_beta   72.40311066
_cell_angle_gamma   60.41908022
_symmetry_Int_Tables_number   69
_chemical_formula_structural   La3(B3Ru4)2
_chemical_formula_sum   'La3 B6 Ru8'
_cell_volume   242.26922988
_cell_formula_units_Z   1
loop_
 _symmetry_equiv_pos_site_id
 _symmetry_equiv_pos_as_xyz
  1  'x, y, z'
  2  '-x, -y, -z'
  3  '-x-z, -y, z'
  4  'x+z, y, -z'
  5  'x+y+z, -y, -z'
  6  '-x-y-z, y, z'
  7  '-x-y, y, -z'
  8  'x+y, -y, z'
loop_
 _atom_site_type_symbol
 _atom_site_label
 _atom_site_symmetry_multiplicity
 _atom_site_fract_x
 _atom_site_fract_y
 _atom_site_fract_z
 _atom_site_occupancy
  La  La0  2  0.18201000  0.00000000  0.63598000  1.0
  La  La1  1  0.00000000  0.00000000  0.00000000  1.0
  B  B2  4  0.16499400  0.32807200  0.34194000  1.0
  B  B3  2  0.33083900  0.33832200  0.00000000  1.0
  Ru  Ru4  4  0.08581400  0.50000000  0.82837200  1.0
  Ru  Ru5  2  0.25000000  0.50000000  0.50000000  1.0
  Ru  Ru6  2  0.41318000  0.00000000  0.17364000  1.0
