# generated using pymatgen
data_Y3(B3Os4)2
_symmetry_space_group_name_H-M   Fmmm
_cell_length_a   5.52517400
_cell_length_b   5.52924738
_cell_length_c   9.26282391
_cell_angle_alpha   81.43030014
_cell_angle_beta   72.64780114
_cell_angle_gamma   60.02436674
_symmetry_Int_Tables_number   69
_chemical_formula_structural   Y3(B3Os4)2
_chemical_formula_sum   'Y3 B6 Os8'
_cell_volume   233.97192570
_cell_formula_units_Z   1
loop_
 _symmetry_equiv_pos_site_id
 _symmetry_equiv_pos_as_xyz
  1  'x, y, z'
  2  '-x, -y, -z'
  3  '-x-z, -y, z'
  4  'x+z, y, -z'
  5  'x+y+z, -y, -z'
  6  '-x-y-z, y, z'
  7  '-x-y, y, -z'
  8  'x+y, -y, z'
loop_
 _atom_site_type_symbol
 _atom_site_label
 _atom_site_symmetry_multiplicity
 _atom_site_fract_x
 _atom_site_fract_y
 _atom_site_fract_z
 _atom_site_occupancy
  Y  Y0  2  0.17970700  0.00000000  0.64058600  1.0
  Y  Y1  1  0.00000000  0.00000000  0.00000000  1.0
  B  B2  4  0.17605100  0.29747900  0.35041900  1.0
  B  B3  2  0.31802100  0.36395800  0.00000000  1.0
  Os  Os4  4  0.09027000  0.50000000  0.81946000  1.0
  Os  Os5  2  0.25000000  0.50000000  0.50000000  1.0
  Os  Os6  2  0.42025300  0.00000000  0.15949400  1.0
