# generated using pymatgen
data_Sr1.875B3.75Rh5
_symmetry_space_group_name_H-M   Fmmm
_cell_length_a   5.59030800
_cell_length_b   5.79067902
_cell_length_c   6.31883118
_cell_angle_alpha   77.67109410
_cell_angle_beta   63.74589086
_cell_angle_gamma   61.13818418
_symmetry_Int_Tables_number   69
_chemical_formula_structural   Sr1.875B3.75Rh5
_chemical_formula_sum   'Sr1.875 B3.75 Rh5'
_cell_volume   160.66291669
_cell_formula_units_Z   1
loop_
 _symmetry_equiv_pos_site_id
 _symmetry_equiv_pos_as_xyz
  1  'x, y, z'
  2  '-x, -y, -z'
  3  '-x-z, -y, z'
  4  'x+z, y, -z'
  5  'x+y+z, -y, -z'
  6  '-x-y-z, y, z'
  7  '-x-y, y, -z'
  8  'x+y, -y, z'
loop_
 _atom_site_type_symbol
 _atom_site_label
 _atom_site_symmetry_multiplicity
 _atom_site_fract_x
 _atom_site_fract_y
 _atom_site_fract_z
 _atom_site_occupancy
  Sr  Sr0  2  0.14439800  0.00000000  0.71120400  0.9375
  B  B1  4  0.20685000  0.33012100  0.25617900  0.9375
  Rh  Rh2  2  0.00000000  0.50000000  0.00000000  1.0
  Rh  Rh3  2  0.25000000  0.50000000  0.50000000  1.0
  Rh  Rh4  1  0.50000000  0.00000000  0.00000000  1.0
