# generated using pymatgen
data_Sr3(B3Rh4)2
_symmetry_space_group_name_H-M   Fmmm
_cell_length_a   5.62332200
_cell_length_b   5.75956400
_cell_length_c   9.05473510
_cell_angle_alpha   81.28112167
_cell_angle_beta   71.90953126
_cell_angle_gamma   60.77946131
_symmetry_Int_Tables_number   69
_chemical_formula_structural   Sr3(B3Rh4)2
_chemical_formula_sum   'Sr3 B6 Rh8'
_cell_volume   243.29302618
_cell_formula_units_Z   1
loop_
 _symmetry_equiv_pos_site_id
 _symmetry_equiv_pos_as_xyz
  1  'x, y, z'
  2  '-x, -y, -z'
  3  '-x-z, -y, z'
  4  'x+z, y, -z'
  5  'x+y+z, -y, -z'
  6  '-x-y-z, y, z'
  7  '-x-y, y, -z'
  8  'x+y, -y, z'
loop_
 _atom_site_type_symbol
 _atom_site_label
 _atom_site_symmetry_multiplicity
 _atom_site_fract_x
 _atom_site_fract_y
 _atom_site_fract_z
 _atom_site_occupancy
  Sr  Sr0  2  0.31656800  0.00000000  0.36686400  1.0
  Sr  Sr1  1  0.50000000  0.00000000  0.00000000  1.0
  B  B2  4  0.00447400  0.32945600  0.66159600  1.0
  B  B3  2  0.16455200  0.67089600  0.00000000  1.0
  Rh  Rh4  4  0.08429000  0.50000000  0.83142000  1.0
  Rh  Rh5  2  0.08688500  0.00000000  0.82623000  1.0
  Rh  Rh6  2  0.25000000  0.50000000  0.50000000  1.0
