# generated using pymatgen
data_K1.98Ba1.02Bi3O9
_symmetry_space_group_name_H-M   P-3m1
_cell_length_a   6.10443400
_cell_length_b   6.10443320
_cell_length_c   7.48111300
_cell_angle_alpha   90.00000000
_cell_angle_beta   90.00000000
_cell_angle_gamma   120.00000432
_symmetry_Int_Tables_number   164
_chemical_formula_structural   K1.98Ba1.02Bi3O9
_chemical_formula_sum   'K1.98 Ba1.02 Bi3 O9'
_cell_volume   241.42796612
_cell_formula_units_Z   1
loop_
 _symmetry_equiv_pos_site_id
 _symmetry_equiv_pos_as_xyz
  1  'x, y, z'
  2  '-x, -y, -z'
  3  '-y, x-y, z'
  4  'y, -x+y, -z'
  5  '-x+y, -x, z'
  6  'x-y, x, -z'
  7  'y, x, -z'
  8  '-y, -x, z'
  9  'x-y, -y, -z'
  10  '-x+y, y, z'
  11  '-x, -x+y, -z'
  12  'x, x-y, z'
loop_
 _atom_site_type_symbol
 _atom_site_label
 _atom_site_symmetry_multiplicity
 _atom_site_fract_x
 _atom_site_fract_y
 _atom_site_fract_z
 _atom_site_occupancy
  K  K0  2  0.33333333  0.66666667  0.66519500  0.99
  Ba  Ba1  2  0.33333333  0.66666667  0.66519500  0.01
  Ba  Ba2  1  0.00000000  0.00000000  0.00000000  1.0
  Bi  Bi3  2  0.33333333  0.66666667  0.16963400  1.0
  Bi  Bi4  1  0.00000000  0.00000000  0.50000000  1.0
  O  O5  6  0.16103800  0.83896200  0.32274600  1.0
  O  O6  3  0.00000000  0.50000000  0.00000000  1.0
