# generated using pymatgen
data_Ba0.78W6O18
_symmetry_space_group_name_H-M   P6mm
_cell_length_a   7.52182200
_cell_length_b   7.52182292
_cell_length_c   7.73528800
_cell_angle_alpha   90.00000000
_cell_angle_beta   90.00000000
_cell_angle_gamma   119.99999595
_symmetry_Int_Tables_number   183
_chemical_formula_structural   Ba0.78W6O18
_chemical_formula_sum   'Ba0.78 W6 O18'
_cell_volume   379.01229124
_cell_formula_units_Z   1
loop_
 _symmetry_equiv_pos_site_id
 _symmetry_equiv_pos_as_xyz
  1  'x, y, z'
  2  'x-y, x, z'
  3  '-y, x-y, z'
  4  '-x, -y, z'
  5  '-x+y, -x, z'
  6  'y, -x+y, z'
  7  'y, x, z'
  8  'x, x-y, z'
  9  'x-y, -y, z'
  10  '-y, -x, z'
  11  '-x, -x+y, z'
  12  '-x+y, y, z'
loop_
 _atom_site_type_symbol
 _atom_site_label
 _atom_site_symmetry_multiplicity
 _atom_site_fract_x
 _atom_site_fract_y
 _atom_site_fract_z
 _atom_site_occupancy
  Ba  Ba0  1  0.00000000  0.00000000  0.43239800  0.78
  W  W1  3  0.00000000  0.50000000  0.24889000  1.0
  W  W2  3  0.00000000  0.50000000  0.75000200  1.0
  O  O3  6  0.20830600  0.41661200  0.25421900  1.0
  O  O4  6  0.21115900  0.42231800  0.74668100  1.0
  O  O5  3  0.00000000  0.50000000  0.49954100  1.0
  O  O6  3  0.00000000  0.50000000  0.99996500  1.0
