# generated using pymatgen
data_Ba0.78W6O18
_symmetry_space_group_name_H-M   P31m
_cell_length_a   7.46692600
_cell_length_b   7.46692634
_cell_length_c   7.69189500
_cell_angle_alpha   90.00000000
_cell_angle_beta   90.00000000
_cell_angle_gamma   119.99999848
_symmetry_Int_Tables_number   157
_chemical_formula_structural   Ba0.78W6O18
_chemical_formula_sum   'Ba0.78 W6 O18'
_cell_volume   371.40496055
_cell_formula_units_Z   1
loop_
 _symmetry_equiv_pos_site_id
 _symmetry_equiv_pos_as_xyz
  1  'x, y, z'
  2  '-y, x-y, z'
  3  '-x+y, -x, z'
  4  'y, x, z'
  5  'x-y, -y, z'
  6  '-x, -x+y, z'
loop_
 _atom_site_type_symbol
 _atom_site_label
 _atom_site_symmetry_multiplicity
 _atom_site_fract_x
 _atom_site_fract_y
 _atom_site_fract_z
 _atom_site_occupancy
  Ba  Ba0  1  0.00000000  0.00000000  0.43407200  0.78
  W  W1  3  0.00000000  0.49239400  0.74990500  1.0
  W  W2  3  0.00000000  0.50432100  0.24836600  1.0
  O  O3  6  0.20888600  0.41841600  0.25403500  1.0
  O  O4  6  0.21052300  0.78679300  0.74672800  1.0
  O  O5  3  0.00000000  0.49867000  0.00093100  1.0
  O  O6  3  0.00000000  0.49877400  0.49891400  1.0
