# generated using pymatgen
data_Ba0.1Sr1.9Cu1O2F2
_symmetry_space_group_name_H-M   I4/mmm
_cell_length_a   4.00597200
_cell_length_b   4.00597200
_cell_length_c   7.07138020
_cell_angle_alpha   106.45441937
_cell_angle_beta   106.45441937
_cell_angle_gamma   89.99999999
_symmetry_Int_Tables_number   139
_chemical_formula_structural   Ba0.1Sr1.9Cu1O2F2
_chemical_formula_sum   'Ba0.1 Sr1.9 Cu1 O2 F2'
_cell_volume   103.97757510
_cell_formula_units_Z   1
loop_
 _symmetry_equiv_pos_site_id
 _symmetry_equiv_pos_as_xyz
  1  'x, y, z'
  2  '-x, -y, -z'
  3  '-y+z, x, z'
  4  'y-z, -x, -z'
  5  '-x+z, -y+z, z'
  6  'x-z, y-z, -z'
  7  'y, -x+z, z'
  8  '-y, x-z, -z'
  9  'x-z, -y, -z'
  10  '-x+z, y, z'
  11  '-y, -x, -z'
  12  'y, x, z'
  13  '-x, y-z, -z'
  14  'x, -y+z, z'
  15  'y-z, x-z, -z'
  16  '-y+z, -x+z, z'
loop_
 _atom_site_type_symbol
 _atom_site_label
 _atom_site_symmetry_multiplicity
 _atom_site_fract_x
 _atom_site_fract_y
 _atom_site_fract_z
 _atom_site_occupancy
  Sr  Sr0  2  0.36545800  0.36545800  0.73091600  0.95
  Ba  Ba1  2  0.36545800  0.36545800  0.73091600  0.05
  Cu  Cu2  1  0.00000000  0.00000000  0.00000000  1.0
  O  O3  2  0.00000000  0.50000000  0.00000000  1.0
  F  F4  2  0.25000000  0.75000000  0.50000000  1.0
