# generated using pymatgen
data_K0.23Ba0.77Bi1O3
_symmetry_space_group_name_H-M   R32
_cell_length_a   4.43647442
_cell_length_b   4.43647442
_cell_length_c   4.43647433
_cell_angle_alpha   90.07361203
_cell_angle_beta   89.92638797
_cell_angle_gamma   89.92637718
_symmetry_Int_Tables_number   155
_chemical_formula_structural   K0.23Ba0.77Bi1O3
_chemical_formula_sum   'K0.23 Ba0.77 Bi1 O3'
_cell_volume   87.31982572
_cell_formula_units_Z   1
loop_
 _symmetry_equiv_pos_site_id
 _symmetry_equiv_pos_as_xyz
  1  'x, y, z'
  2  '-y, z, -x'
  3  '-z, -x, y'
  4  '-x, -z, -y'
  5  'y, x, -z'
  6  'z, -y, x'
loop_
 _atom_site_type_symbol
 _atom_site_label
 _atom_site_symmetry_multiplicity
 _atom_site_fract_x
 _atom_site_fract_y
 _atom_site_fract_z
 _atom_site_occupancy
  Ba  Ba0  1  0.50000000  0.50000000  0.50000000  0.77
  K  K1  1  0.50000000  0.50000000  0.50000000  0.23
  Bi  Bi2  1  0.00000000  0.00000000  0.00000000  1.0
  O  O3  3  0.01085900  0.50000000  0.01085900  1.0
