# generated using pymatgen
data_KBa3(BiO3)4
_symmetry_space_group_name_H-M   Pmm2
_cell_length_a   6.17410500
_cell_length_b   6.25041900
_cell_length_c   8.75079200
_cell_angle_alpha   90.00000000
_cell_angle_beta   90.00000000
_cell_angle_gamma   90.00000000
_symmetry_Int_Tables_number   25
_chemical_formula_structural   KBa3(BiO3)4
_chemical_formula_sum   'K1 Ba3 Bi4 O12'
_cell_volume   337.69956687
_cell_formula_units_Z   1
loop_
 _symmetry_equiv_pos_site_id
 _symmetry_equiv_pos_as_xyz
  1  'x, y, z'
  2  '-x, y, -z'
  3  '-x, y, z'
  4  'x, y, -z'
loop_
 _atom_site_type_symbol
 _atom_site_label
 _atom_site_symmetry_multiplicity
 _atom_site_fract_x
 _atom_site_fract_y
 _atom_site_fract_z
 _atom_site_occupancy
  K  K0  1  0.50000000  0.00336200  0.50000000  1.0
  Ba  Ba1  1  0.00000000  0.49549300  0.00000000  1.0
  Ba  Ba2  1  0.00000000  0.49937900  0.50000000  1.0
  Ba  Ba3  1  0.50000000  0.99813800  0.00000000  1.0
  Bi  Bi4  2  0.00000000  0.99920300  0.25246800  1.0
  Bi  Bi5  2  0.50000000  0.50036300  0.25154100  1.0
  O  O6  4  0.24656000  0.26159100  0.26298300  1.0
  O  O7  4  0.25016500  0.74194500  0.22121200  1.0
  O  O8  1  0.00000000  0.03682600  0.00000000  1.0
  O  O9  1  0.00000000  0.95672200  0.50000000  1.0
  O  O10  1  0.50000000  0.45410800  0.00000000  1.0
  O  O11  1  0.50000000  0.54269700  0.50000000  1.0
