# generated using pymatgen
data_Ba
_symmetry_space_group_name_H-M   Im-3m
_cell_length_a   4.38395918
_cell_length_b   4.38395918
_cell_length_c   4.38937558
_cell_angle_alpha   108.24262391
_cell_angle_beta   108.24262391
_cell_angle_gamma   111.90960918
_symmetry_Int_Tables_number   229
_chemical_formula_structural   Ba
_chemical_formula_sum   Ba1
_cell_volume   64.88810716
_cell_formula_units_Z   1
loop_
 _symmetry_equiv_pos_site_id
 _symmetry_equiv_pos_as_xyz
  1  'x, y, z'
  2  '-x, -y, -z'
  3  '-y+z+1/2, z+1/2, -x+z'
  4  'y-z+1/2, -z+1/2, x-z'
  5  '-x, -x+z+1/2, -x+y+1/2'
  6  'x, x-z+1/2, x-y+1/2'
  7  'y-z+1/2, -x+y, y+1/2'
  8  '-y+z+1/2, x-y, -y+1/2'
  9  '-y+z+1/2, -y, x-y+1/2'
  10  'y-z+1/2, y, -x+y+1/2'
  11  '-x, -z+1/2, -y+1/2'
  12  'x, z+1/2, y+1/2'
  13  'y-z+1/2, x-z+1/2, -z'
  14  '-y+z+1/2, -x+z+1/2, z'
  15  'x, x-y, x-z'
  16  '-x, -x+y, -x+z'
  17  'z+1/2, x, y+1/2'
  18  '-z+1/2, -x, -y+1/2'
  19  '-x+z+1/2, -y+z+1/2, z'
  20  'x-z+1/2, y-z+1/2, -z'
  21  '-x+y, -x, -x+z'
  22  'x-y, x, x-z'
  23  'y, y-z+1/2, -x+y+1/2'
  24  '-y, -y+z+1/2, x-y+1/2'
  25  'x-y, -y+z+1/2, -y+1/2'
  26  '-x+y, y-z+1/2, y+1/2'
  27  '-y, -x, -z'
  28  'y, x, z'
  29  '-z+1/2, y-z+1/2, x-z'
  30  'z+1/2, -y+z+1/2, -x+z'
  31  'x-z+1/2, x, x-y+1/2'
  32  '-x+z+1/2, -x, -x+y+1/2'
  33  'y, z+1/2, x+1/2'
  34  '-y, -z+1/2, -x+1/2'
  35  'z+1/2, -x+z+1/2, -y+z'
  36  '-z+1/2, x-z+1/2, y-z'
  37  '-x+z+1/2, -x+y, -x+1/2'
  38  'x-z+1/2, x-y, x+1/2'
  39  '-x+y, y, y-z'
  40  'x-y, -y, -y+z'
  41  '-y, x-y, -y+z'
  42  'y, -x+y, y-z'
  43  '-z+1/2, -y, -x+1/2'
  44  'z+1/2, y, x+1/2'
  45  'x-z+1/2, -z+1/2, y-z'
  46  '-x+z+1/2, z+1/2, -y+z'
  47  'x-y, x-z+1/2, x+1/2'
  48  '-x+y, -x+z+1/2, -x+1/2'
loop_
 _atom_site_type_symbol
 _atom_site_label
 _atom_site_symmetry_multiplicity
 _atom_site_fract_x
 _atom_site_fract_y
 _atom_site_fract_z
 _atom_site_occupancy
  Ba  Ba0  1  0.00000000  0.00000000  0.50000000  1.0
