# generated using pymatgen
data_Ba
_symmetry_space_group_name_H-M   Cmcm
_cell_length_a   5.85034682
_cell_length_b   5.85034682
_cell_length_c   6.57850500
_cell_angle_alpha   90.00000000
_cell_angle_beta   90.00000000
_cell_angle_gamma   104.99317302
_symmetry_Int_Tables_number   63
_chemical_formula_structural   Ba
_chemical_formula_sum   Ba4
_cell_volume   217.49439783
_cell_formula_units_Z   4
loop_
 _symmetry_equiv_pos_site_id
 _symmetry_equiv_pos_as_xyz
  1  'x, y, z'
  2  '-x, -y, -z'
  3  '-x, -y, z+1/2'
  4  'x, y, -z+1/2'
  5  'y+1/2, x+1/2, -z'
  6  '-y+1/2, -x+1/2, z'
  7  '-y+1/2, -x+1/2, -z+1/2'
  8  'y+1/2, x+1/2, z+1/2'
loop_
 _atom_site_type_symbol
 _atom_site_label
 _atom_site_symmetry_multiplicity
 _atom_site_fract_x
 _atom_site_fract_y
 _atom_site_fract_z
 _atom_site_occupancy
  Ba  Ba0  2  0.14415600  0.35584400  0.75000000  1.0
  Ba  Ba1  2  0.48655100  0.01344900  0.25000000  1.0
