# generated using pymatgen
data_Ba1.85Sm1.15Cu3O7
_symmetry_space_group_name_H-M   Pmmm
_cell_length_a   3.87767800
_cell_length_b   3.93909400
_cell_length_c   11.85357600
_cell_angle_alpha   90.00000000
_cell_angle_beta   90.00000000
_cell_angle_gamma   90.00000000
_symmetry_Int_Tables_number   47
_chemical_formula_structural   Ba1.85Sm1.15Cu3O7
_chemical_formula_sum   'Ba1.85 Sm1.15 Cu3 O7'
_cell_volume   181.05789875
_cell_formula_units_Z   1
loop_
 _symmetry_equiv_pos_site_id
 _symmetry_equiv_pos_as_xyz
  1  'x, y, z'
  2  '-x, -y, -z'
  3  '-x, -y, z'
  4  'x, y, -z'
  5  'x, -y, -z'
  6  '-x, y, z'
  7  '-x, y, -z'
  8  'x, -y, z'
loop_
 _atom_site_type_symbol
 _atom_site_label
 _atom_site_symmetry_multiplicity
 _atom_site_fract_x
 _atom_site_fract_y
 _atom_site_fract_z
 _atom_site_occupancy
  Ba  Ba0  2  0.50000000  0.50000000  0.17987700  0.925
  Sm  Sm1  2  0.50000000  0.50000000  0.17987700  0.075
  Sm  Sm2  1  0.50000000  0.50000000  0.50000000  1.0
  Cu  Cu3  2  0.00000000  0.00000000  0.34940000  1.0
  Cu  Cu4  1  0.00000000  0.00000000  0.00000000  1.0
  O  O5  2  0.00000000  0.00000000  0.15860100  1.0
  O  O6  2  0.00000000  0.50000000  0.37442800  1.0
  O  O7  2  0.50000000  0.00000000  0.37461100  1.0
  O  O8  1  0.00000000  0.50000000  0.00000000  1.0
