# generated using pymatgen
data_Ba1.8La0.2Y1Cu4O8
_symmetry_space_group_name_H-M   Cmmm
_cell_length_a   3.85376200
_cell_length_b   3.86713600
_cell_length_c   14.70696103
_cell_angle_alpha   82.44528149
_cell_angle_beta   90.00000000
_cell_angle_gamma   90.00000000
_symmetry_Int_Tables_number   65
_chemical_formula_structural   Ba1.8La0.2Y1Cu4O8
_chemical_formula_sum   'Ba1.8 La0.2 Y1 Cu4 O8'
_cell_volume   217.27564007
_cell_formula_units_Z   1
loop_
 _symmetry_equiv_pos_site_id
 _symmetry_equiv_pos_as_xyz
  1  'x, y, z'
  2  '-x, -y, -z'
  3  'x, -y, -z'
  4  '-x, y, z'
  5  '-x, y+z, -z'
  6  'x, -y-z, z'
  7  '-x, -y-z, z'
  8  'x, y+z, -z'
loop_
 _atom_site_type_symbol
 _atom_site_label
 _atom_site_symmetry_multiplicity
 _atom_site_fract_x
 _atom_site_fract_y
 _atom_site_fract_z
 _atom_site_occupancy
  Ba  Ba0  2  0.50000000  0.36371900  0.27256200  0.9
  La  La1  2  0.50000000  0.36371900  0.27256200  0.1
  Y  Y2  1  0.00000000  0.00000000  0.00000000  1.0
  Cu  Cu3  2  0.00000000  0.08283200  0.83433600  1.0
  Cu  Cu4  2  0.00000000  0.21464600  0.57070800  1.0
  O  O5  2  0.00000000  0.15061700  0.69876600  1.0
  O  O6  2  0.00000000  0.27938500  0.44123000  1.0
  O  O7  2  0.00000000  0.44255200  0.11489600  1.0
  O  O8  2  0.50000000  0.05822800  0.88354400  1.0
