# generated using pymatgen
data_Ba3LaY2(Cu3O7)2
_symmetry_space_group_name_H-M   Fmm2
_cell_length_a   5.48349948
_cell_length_b   5.48349948
_cell_length_c   12.26332536
_cell_angle_alpha   102.52667601
_cell_angle_beta   102.52667600
_cell_angle_gamma   91.71189458
_symmetry_Int_Tables_number   42
_chemical_formula_structural   Ba3LaY2(Cu3O7)2
_chemical_formula_sum   'Ba3 La1 Y2 Cu6 O14'
_cell_volume   350.24976710
_cell_formula_units_Z   1
loop_
 _symmetry_equiv_pos_site_id
 _symmetry_equiv_pos_as_xyz
  1  'x, y, z'
  2  '-x+z, -y+z, z'
  3  '-y+z, -x+z, z'
  4  'y, x, z'
loop_
 _atom_site_type_symbol
 _atom_site_label
 _atom_site_symmetry_multiplicity
 _atom_site_fract_x
 _atom_site_fract_y
 _atom_site_fract_z
 _atom_site_occupancy
  Ba  Ba0  1  0.09267000  0.09267000  0.18534000  1.0
  Ba  Ba1  1  0.59101100  0.59101100  0.18202200  1.0
  Ba  Ba2  1  0.90765900  0.90765900  0.81531800  1.0
  La  La3  1  0.40967200  0.40967200  0.81934400  1.0
  Y  Y4  1  0.25119500  0.25119500  0.50239000  1.0
  Y  Y5  1  0.75064200  0.75064200  0.50128400  1.0
  Cu  Cu6  2  0.17903800  0.67903800  0.35807600  1.0
  Cu  Cu7  2  0.32233900  0.82233900  0.64467800  1.0
  Cu  Cu8  2  0.49839000  0.99839000  0.99678000  1.0
  O  O9  2  0.06846800  0.06846800  0.63002300  1.0
  O  O10  2  0.06952800  0.55989500  0.62942300  1.0
  O  O11  2  0.07872000  0.57872000  0.15744000  1.0
  O  O12  2  0.27706600  0.27706600  0.98302800  1.0
  O  O13  2  0.41743700  0.91743700  0.83487400  1.0
  O  O14  2  0.43946500  0.43946500  0.37917700  1.0
  O  O15  2  0.44266900  0.94098400  0.38365300  1.0
