# generated using pymatgen
data_Ba1.9Sr0.1Gd1Cu4O8
_symmetry_space_group_name_H-M   Cmmm
_cell_length_a   3.89956500
_cell_length_b   3.91479600
_cell_length_c   13.83769943
_cell_angle_alpha   98.13199196
_cell_angle_beta   90.00000000
_cell_angle_gamma   90.00000000
_symmetry_Int_Tables_number   65
_chemical_formula_structural   Ba1.9Sr0.1Gd1Cu4O8
_chemical_formula_sum   'Ba1.9 Sr0.1 Gd1 Cu4 O8'
_cell_volume   209.12222170
_cell_formula_units_Z   1
loop_
 _symmetry_equiv_pos_site_id
 _symmetry_equiv_pos_as_xyz
  1  'x, y, z'
  2  '-x, -y, -z'
  3  'x, -y, -z'
  4  '-x, y, z'
  5  '-x, y-z, -z'
  6  'x, -y+z, z'
  7  '-x, -y+z, z'
  8  'x, y-z, -z'
loop_
 _atom_site_type_symbol
 _atom_site_label
 _atom_site_symmetry_multiplicity
 _atom_site_fract_x
 _atom_site_fract_y
 _atom_site_fract_z
 _atom_site_occupancy
  Ba  Ba0  2  0.50000000  0.36463700  0.72927400  0.95
  Sr  Sr1  2  0.50000000  0.36463700  0.72927400  0.05
  Gd  Gd2  1  0.50000000  0.50000000  0.00000000  1.0
  Cu  Cu3  2  0.00000000  0.06159300  0.12318600  1.0
  Cu  Cu4  2  0.00000000  0.21258600  0.42517200  1.0
  O  O5  2  0.00000000  0.14524800  0.29049600  1.0
  O  O6  2  0.00000000  0.28188100  0.56376200  1.0
  O  O7  2  0.00000000  0.44741200  0.89482400  1.0
  O  O8  2  0.50000000  0.05262700  0.10525400  1.0
