# generated using pymatgen
data_BaBiO3
_symmetry_space_group_name_H-M   P1
_cell_length_a   4.24422182
_cell_length_b   6.67931022
_cell_length_c   7.87558753
_cell_angle_alpha   74.84219105
_cell_angle_beta   74.57440414
_cell_angle_gamma   86.40951348
_symmetry_Int_Tables_number   1
_chemical_formula_structural   BaBiO3
_chemical_formula_sum   'Ba2 Bi2 O6'
_cell_volume   207.72494205
_cell_formula_units_Z   2
loop_
 _symmetry_equiv_pos_site_id
 _symmetry_equiv_pos_as_xyz
  1  'x, y, z'
loop_
 _atom_site_type_symbol
 _atom_site_label
 _atom_site_symmetry_multiplicity
 _atom_site_fract_x
 _atom_site_fract_y
 _atom_site_fract_z
 _atom_site_occupancy
  Ba  Ba0  1  0.51109000  0.29394800  0.30821600  1.0
  Ba  Ba1  1  0.70470100  0.67366900  0.64377500  1.0
  Bi  Bi2  1  0.07513700  0.16084000  0.80346500  1.0
  Bi  Bi3  1  0.42205300  0.86145700  0.09845600  1.0
  O  O4  1  0.04105300  0.59479300  0.17883700  1.0
  O  O5  1  0.22452700  0.94632500  0.55646500  1.0
  O  O6  1  0.23849300  0.43786100  0.61432500  1.0
  O  O7  1  0.62115000  0.26304300  0.94880000  1.0
  O  O8  1  0.73423400  0.68540600  0.28117800  1.0
  O  O9  1  0.92756800  0.08265500  0.56648400  1.0
