# generated using pymatgen
data_Ba2Bi0.6Pb1.4O6
_symmetry_space_group_name_H-M   Imma
_cell_length_a   6.13386200
_cell_length_b   6.15586651
_cell_length_c   6.15586651
_cell_angle_alpha   60.65324590
_cell_angle_beta   60.11817518
_cell_angle_gamma   60.11817518
_symmetry_Int_Tables_number   74
_chemical_formula_structural   Ba2Bi0.6Pb1.4O6
_chemical_formula_sum   'Ba2 Bi0.6 Pb1.4 O6'
_cell_volume   165.45383816
_cell_formula_units_Z   1
loop_
 _symmetry_equiv_pos_site_id
 _symmetry_equiv_pos_as_xyz
  1  'x, y, z'
  2  '-x, -y, -z'
  3  '-x+1/2, -z+1/2, -y+1/2'
  4  'x+1/2, z+1/2, y+1/2'
  5  'x+y+z, -y, -z'
  6  '-x-y-z, y, z'
  7  '-x-y-z+1/2, z+1/2, y+1/2'
  8  'x+y+z+1/2, -z+1/2, -y+1/2'
loop_
 _atom_site_type_symbol
 _atom_site_label
 _atom_site_symmetry_multiplicity
 _atom_site_fract_x
 _atom_site_fract_y
 _atom_site_fract_z
 _atom_site_occupancy
  Ba  Ba0  2  0.25000000  0.74331100  0.75668900  1.0
  Pb  Pb1  2  0.00000000  0.50000000  0.50000000  0.7
  Bi  Bi2  2  0.00000000  0.50000000  0.50000000  0.3
  O  O3  4  0.20985500  0.29014500  0.79014500  1.0
  O  O4  2  0.25000000  0.17933300  0.32066700  1.0
