# generated using pymatgen
data_Ba5BiPb4O15
_symmetry_space_group_name_H-M   P-1
_cell_length_a   6.17113000
_cell_length_b   6.17253418
_cell_length_c   25.42433837
_cell_angle_alpha   83.09670670
_cell_angle_beta   83.11750072
_cell_angle_gamma   60.44610859
_symmetry_Int_Tables_number   2
_chemical_formula_structural   Ba5BiPb4O15
_chemical_formula_sum   'Ba10 Bi2 Pb8 O30'
_cell_volume   834.28272468
_cell_formula_units_Z   2
loop_
 _symmetry_equiv_pos_site_id
 _symmetry_equiv_pos_as_xyz
  1  'x, y, z'
  2  '-x, -y, -z'
loop_
 _atom_site_type_symbol
 _atom_site_label
 _atom_site_symmetry_multiplicity
 _atom_site_fract_x
 _atom_site_fract_y
 _atom_site_fract_z
 _atom_site_occupancy
  Ba  Ba0  2  0.05460000  0.04814100  0.34705000  1.0
  Ba  Ba1  2  0.14532500  0.15528400  0.04943700  1.0
  Ba  Ba2  2  0.25203300  0.24476100  0.75314000  1.0
  Ba  Ba3  2  0.34763400  0.35328800  0.44915200  1.0
  Ba  Ba4  2  0.45573500  0.44611500  0.14815700  1.0
  Bi  Bi5  2  0.29945700  0.30013100  0.60048700  1.0
  Pb  Pb6  2  0.10098900  0.09987100  0.19910400  1.0
  Pb  Pb7  2  0.19990000  0.19958100  0.90053600  1.0
  Pb  Pb8  2  0.39988800  0.40141200  0.29849200  1.0
  Pb  Pb9  1  0.00000000  0.00000000  0.50000000  1.0
  Pb  Pb10  1  0.50000000  0.50000000  0.00000000  1.0
  O  O11  2  0.00916100  0.88694500  0.15083100  1.0
  O  O12  2  0.06747000  0.56731000  0.35740100  1.0
  O  O13  2  0.07207700  0.56727800  0.85596300  1.0
  O  O14  2  0.13078200  0.62901900  0.04346900  1.0
  O  O15  2  0.13473900  0.62799700  0.54389600  1.0
  O  O16  2  0.18719900  0.30615500  0.25154900  1.0
  O  O17  2  0.20722900  0.09677200  0.54994300  1.0
  O  O18  2  0.26511700  0.77304300  0.75519600  1.0
  O  O19  2  0.26754900  0.77291900  0.25758700  1.0
  O  O20  2  0.33009400  0.82910800  0.94310300  1.0
  O  O21  2  0.33575900  0.82999100  0.44404300  1.0
  O  O22  2  0.39609400  0.50653200  0.64819900  1.0
  O  O23  2  0.41208700  0.28921200  0.94974300  1.0
  O  O24  2  0.46772200  0.96829800  0.65453200  1.0
  O  O25  2  0.47196000  0.96898100  0.15711300  1.0
