# generated using pymatgen
data_Ba4Bi(PbO4)3
_symmetry_space_group_name_H-M   P2/m
_cell_length_a   6.15624300
_cell_length_b   6.22388000
_cell_length_c   8.71292470
_cell_angle_alpha   89.97702362
_cell_angle_beta   90.00000000
_cell_angle_gamma   90.00000000
_symmetry_Int_Tables_number   10
_chemical_formula_structural   Ba4Bi(PbO4)3
_chemical_formula_sum   'Ba4 Bi1 Pb3 O12'
_cell_volume   333.84193615
_cell_formula_units_Z   1
loop_
 _symmetry_equiv_pos_site_id
 _symmetry_equiv_pos_as_xyz
  1  'x, y, z'
  2  '-x, -y, -z'
  3  'x, -y, -z'
  4  '-x, y, z'
loop_
 _atom_site_type_symbol
 _atom_site_label
 _atom_site_symmetry_multiplicity
 _atom_site_fract_x
 _atom_site_fract_y
 _atom_site_fract_z
 _atom_site_occupancy
  Ba  Ba0  2  0.00000000  0.49522700  0.24745500  1.0
  Ba  Ba1  2  0.50000000  0.00616000  0.24718400  1.0
  Bi  Bi2  1  0.50000000  0.50000000  0.50000000  1.0
  Pb  Pb3  1  0.00000000  0.00000000  0.00000000  1.0
  Pb  Pb4  1  0.00000000  0.00000000  0.50000000  1.0
  Pb  Pb5  1  0.50000000  0.50000000  0.00000000  1.0
  O  O6  4  0.25063300  0.25056000  0.03779500  1.0
  O  O7  4  0.25139300  0.25244400  0.46472200  1.0
  O  O8  2  0.00000000  0.06542300  0.75164500  1.0
  O  O9  2  0.50000000  0.43452500  0.74899100  1.0
