# generated using pymatgen
data_Ba3.33333333Bi3.33333333O10
_symmetry_space_group_name_H-M   P2_1/c
_cell_length_a   6.29630400
_cell_length_b   7.59682600
_cell_length_c   7.60207088
_cell_angle_alpha   90.00000000
_cell_angle_beta   100.40004339
_cell_angle_gamma   90.00000000
_symmetry_Int_Tables_number   14
_chemical_formula_structural   Ba3.33333333Bi3.33333333O10
_chemical_formula_sum   'Ba3.33333333 Bi3.33333333 O10'
_cell_volume   357.64787198
_cell_formula_units_Z   1
loop_
 _symmetry_equiv_pos_site_id
 _symmetry_equiv_pos_as_xyz
  1  'x, y, z'
  2  '-x, -y, -z'
  3  '-x+1/2, y+1/2, -z'
  4  'x+1/2, -y+1/2, z'
loop_
 _atom_site_type_symbol
 _atom_site_label
 _atom_site_symmetry_multiplicity
 _atom_site_fract_x
 _atom_site_fract_y
 _atom_site_fract_z
 _atom_site_occupancy
  Ba  Ba0  4  0.22041100  0.92713000  0.86333800  0.833333333325
  Bi  Bi1  4  0.23039000  0.38220200  0.63201000  0.833333333325
  O  O2  4  0.03915800  0.72392600  0.19728600  1.0
  O  O3  4  0.23143800  0.08824300  0.17997300  1.0
  O  O4  2  0.00000000  0.00000000  0.50000000  1.0
