# generated using pymatgen
data_Ba2Bi0.2Pb1.8O6
_symmetry_space_group_name_H-M   I4/mcm
_cell_length_a   6.10070200
_cell_length_b   6.18420850
_cell_length_c   6.10070200
_cell_angle_alpha   119.55431458
_cell_angle_beta   90.00000000
_cell_angle_gamma   119.55431458
_symmetry_Int_Tables_number   140
_chemical_formula_structural   Ba2Bi0.2Pb1.8O6
_chemical_formula_sum   'Ba2 Bi0.2 Pb1.8 O6'
_cell_volume   164.92130426
_cell_formula_units_Z   1
loop_
 _symmetry_equiv_pos_site_id
 _symmetry_equiv_pos_as_xyz
  1  'x, y, z'
  2  '-x, -y, -z'
  3  'y-z, y, x'
  4  '-y+z, -y, -x'
  5  '-x+y, y, y-z'
  6  'x-y, -y, -y+z'
  7  'z, y, -x+y'
  8  '-z, -y, x-y'
  9  'x-y+1/2, -y, -z+1/2'
  10  '-x+y+1/2, y, z+1/2'
  11  '-z+1/2, -y, -x+1/2'
  12  'z+1/2, y, x+1/2'
  13  '-x+1/2, -y, -y+z+1/2'
  14  'x+1/2, y, y-z+1/2'
  15  '-y+z+1/2, -y, x-y+1/2'
  16  'y-z+1/2, y, -x+y+1/2'
loop_
 _atom_site_type_symbol
 _atom_site_label
 _atom_site_symmetry_multiplicity
 _atom_site_fract_x
 _atom_site_fract_y
 _atom_site_fract_z
 _atom_site_occupancy
  Ba  Ba0  2  0.25000000  0.50000000  0.75000000  1.0
  Pb  Pb1  2  0.00000000  0.00000000  0.00000000  0.9
  Bi  Bi2  2  0.00000000  0.00000000  0.00000000  0.1
  O  O3  4  0.19672100  0.00000000  0.69672100  1.0
  O  O4  2  0.25000000  0.50000000  0.25000000  1.0
