# generated using pymatgen
data_BaCaSn
_symmetry_space_group_name_H-M   Pnma
_cell_length_a   5.32522400
_cell_length_b   8.91054200
_cell_length_c   9.77541900
_cell_angle_alpha   90.00000000
_cell_angle_beta   90.00000000
_cell_angle_gamma   90.00000000
_symmetry_Int_Tables_number   62
_chemical_formula_structural   BaCaSn
_chemical_formula_sum   'Ba4 Ca4 Sn4'
_cell_volume   463.84981070
_cell_formula_units_Z   4
loop_
 _symmetry_equiv_pos_site_id
 _symmetry_equiv_pos_as_xyz
  1  'x, y, z'
  2  '-x, -y, -z'
  3  '-x, -y+1/2, z+1/2'
  4  'x, y+1/2, -z+1/2'
  5  '-x+1/2, y+1/2, -z+1/2'
  6  'x+1/2, -y+1/2, z+1/2'
  7  'x+1/2, -y, -z'
  8  '-x+1/2, y, z'
loop_
 _atom_site_type_symbol
 _atom_site_label
 _atom_site_symmetry_multiplicity
 _atom_site_fract_x
 _atom_site_fract_y
 _atom_site_fract_z
 _atom_site_occupancy
  Ba  Ba0  4  0.25000000  0.02143100  0.18139000  1.0
  Ca  Ca1  4  0.25000000  0.14416300  0.57134300  1.0
  Sn  Sn2  4  0.25000000  0.27489400  0.89157100  1.0
