# generated using pymatgen
data_Ba1.77777778Tl1.35111111Cu1.77777778O8
_symmetry_space_group_name_H-M   I4/mmm
_cell_length_a   3.73202200
_cell_length_b   3.73202200
_cell_length_c   16.06361062
_cell_angle_alpha   96.67075920
_cell_angle_beta   96.67075921
_cell_angle_gamma   89.99999995
_symmetry_Int_Tables_number   139
_chemical_formula_structural   Ba1.77777778Tl1.35111111Cu1.77777778O8
_chemical_formula_sum   'Ba1.77777778 Tl1.35111111 Cu1.77777778 O8'
_cell_volume   220.69405691
_cell_formula_units_Z   1
loop_
 _symmetry_equiv_pos_site_id
 _symmetry_equiv_pos_as_xyz
  1  'x, y, z'
  2  '-x, -y, -z'
  3  '-y+z, x, z'
  4  'y-z, -x, -z'
  5  '-x+z, -y+z, z'
  6  'x-z, y-z, -z'
  7  'y, -x+z, z'
  8  '-y, x-z, -z'
  9  'x-z, -y, -z'
  10  '-x+z, y, z'
  11  '-y, -x, -z'
  12  'y, x, z'
  13  '-x, y-z, -z'
  14  'x, -y+z, z'
  15  'y-z, x-z, -z'
  16  '-y+z, -x+z, z'
loop_
 _atom_site_type_symbol
 _atom_site_label
 _atom_site_symmetry_multiplicity
 _atom_site_fract_x
 _atom_site_fract_y
 _atom_site_fract_z
 _atom_site_occupancy
  Ba  Ba0  2  0.11684400  0.11684400  0.23368800  0.8888888889
  Tl  Tl1  2  0.28800300  0.28800300  0.57600600  0.67555555555
  Cu  Cu2  2  0.45636100  0.45636100  0.91272200  0.8888888889
  O  O3  4  0.05582500  0.55582500  0.11165000  1.0
  O  O4  2  0.22143700  0.22143700  0.44287400  1.0
  O  O5  2  0.35177800  0.35177800  0.70355600  1.0
