# generated using pymatgen
data_BaGd2CuO5
_symmetry_space_group_name_H-M   Pnma
_cell_length_a   5.76715800
_cell_length_b   7.33729400
_cell_length_c   12.37670600
_cell_angle_alpha   90.00000000
_cell_angle_beta   90.00000000
_cell_angle_gamma   90.00000000
_symmetry_Int_Tables_number   62
_chemical_formula_structural   BaGd2CuO5
_chemical_formula_sum   'Ba4 Gd8 Cu4 O20'
_cell_volume   523.72444562
_cell_formula_units_Z   4
loop_
 _symmetry_equiv_pos_site_id
 _symmetry_equiv_pos_as_xyz
  1  'x, y, z'
  2  '-x, -y, -z'
  3  '-x, y+1/2, -z+1/2'
  4  'x, -y+1/2, z+1/2'
  5  '-x+1/2, -y+1/2, z+1/2'
  6  'x+1/2, y+1/2, -z+1/2'
  7  'x+1/2, -y, -z'
  8  '-x+1/2, y, z'
loop_
 _atom_site_type_symbol
 _atom_site_label
 _atom_site_symmetry_multiplicity
 _atom_site_fract_x
 _atom_site_fract_y
 _atom_site_fract_z
 _atom_site_occupancy
  Ba  Ba0  4  0.25000000  0.57217100  0.40617100  1.0
  Gd  Gd1  4  0.25000000  0.10380600  0.57411400  1.0
  Gd  Gd2  4  0.25000000  0.11487000  0.28764300  1.0
  Cu  Cu3  4  0.25000000  0.71650500  0.66095700  1.0
  O  O4  8  0.00594100  0.64545500  0.77243700  1.0
  O  O5  8  0.00790500  0.66615800  0.06732100  1.0
  O  O6  4  0.25000000  0.08249200  0.09989500  1.0
