# generated using pymatgen
data_BaY2CuO5
_symmetry_space_group_name_H-M   Pnma
_cell_length_a   5.71688500
_cell_length_b   7.24591700
_cell_length_c   12.28199800
_cell_angle_alpha   90.00000000
_cell_angle_beta   90.00000000
_cell_angle_gamma   90.00000000
_symmetry_Int_Tables_number   62
_chemical_formula_structural   BaY2CuO5
_chemical_formula_sum   'Ba4 Y8 Cu4 O20'
_cell_volume   508.77039658
_cell_formula_units_Z   4
loop_
 _symmetry_equiv_pos_site_id
 _symmetry_equiv_pos_as_xyz
  1  'x, y, z'
  2  '-x, -y, -z'
  3  '-x, y+1/2, -z+1/2'
  4  'x, -y+1/2, z+1/2'
  5  '-x+1/2, -y+1/2, z+1/2'
  6  'x+1/2, y+1/2, -z+1/2'
  7  'x+1/2, -y, -z'
  8  '-x+1/2, y, z'
loop_
 _atom_site_type_symbol
 _atom_site_label
 _atom_site_symmetry_multiplicity
 _atom_site_fract_x
 _atom_site_fract_y
 _atom_site_fract_z
 _atom_site_occupancy
  Ba  Ba0  4  0.25000000  0.56983900  0.40473400  1.0
  Y  Y1  4  0.25000000  0.10335600  0.57412100  1.0
  Y  Y2  4  0.25000000  0.11436700  0.28737100  1.0
  Cu  Cu3  4  0.25000000  0.71627800  0.66044500  1.0
  O  O4  8  0.00419300  0.64412200  0.77199400  1.0
  O  O5  8  0.00657400  0.66329200  0.06768800  1.0
  O  O6  4  0.25000000  0.08383800  0.10001700  1.0
