# generated using pymatgen
data_Ba4Fe7.6Se12
_symmetry_space_group_name_H-M   Pnma
_cell_length_a   5.42469000
_cell_length_b   9.19887200
_cell_length_c   12.16043300
_cell_angle_alpha   90.00000000
_cell_angle_beta   90.00000000
_cell_angle_gamma   90.00000000
_symmetry_Int_Tables_number   62
_chemical_formula_structural   Ba4Fe7.6Se12
_chemical_formula_sum   'Ba4 Fe7.6 Se12'
_cell_volume   606.81811917
_cell_formula_units_Z   1
loop_
 _symmetry_equiv_pos_site_id
 _symmetry_equiv_pos_as_xyz
  1  'x, y, z'
  2  '-x, -y, -z'
  3  '-x, y+1/2, -z+1/2'
  4  'x, -y+1/2, z+1/2'
  5  '-x+1/2, -y+1/2, z+1/2'
  6  'x+1/2, y+1/2, -z+1/2'
  7  'x+1/2, -y, -z'
  8  '-x+1/2, y, z'
loop_
 _atom_site_type_symbol
 _atom_site_label
 _atom_site_symmetry_multiplicity
 _atom_site_fract_x
 _atom_site_fract_y
 _atom_site_fract_z
 _atom_site_occupancy
  Ba  Ba0  4  0.25000000  0.52054000  0.18546500  1.0
  Fe  Fe1  8  0.00008300  0.63900700  0.50545700  0.95
  Se  Se2  4  0.25000000  0.00943300  0.13245700  1.0
  Se  Se3  4  0.25000000  0.23122100  0.36137600  1.0
  Se  Se4  4  0.25000000  0.68947600  0.90243800  1.0
