# generated using pymatgen
data_BaFe2Se3
_symmetry_space_group_name_H-M   Cmcm
_cell_length_a   5.46367100
_cell_length_b   7.56810138
_cell_length_c   7.56810138
_cell_angle_alpha   105.76882882
_cell_angle_beta   90.00000000
_cell_angle_gamma   90.00000000
_symmetry_Int_Tables_number   63
_chemical_formula_structural   BaFe2Se3
_chemical_formula_sum   'Ba2 Fe4 Se6'
_cell_volume   301.16096873
_cell_formula_units_Z   2
loop_
 _symmetry_equiv_pos_site_id
 _symmetry_equiv_pos_as_xyz
  1  'x, y, z'
  2  '-x, -y, -z'
  3  'x+1/2, -y, -z'
  4  '-x+1/2, y, z'
  5  '-x, z, y'
  6  'x, -z, -y'
  7  '-x+1/2, -z, -y'
  8  'x+1/2, z, y'
loop_
 _atom_site_type_symbol
 _atom_site_label
 _atom_site_symmetry_multiplicity
 _atom_site_fract_x
 _atom_site_fract_y
 _atom_site_fract_z
 _atom_site_occupancy
  Ba  Ba0  2  0.25000000  0.68583300  0.31416700  1.0
  Fe  Fe1  4  0.00000000  0.13879500  0.13879500  1.0
  Se  Se2  4  0.25000000  0.17064100  0.41004000  1.0
  Se  Se3  2  0.25000000  0.13367800  0.86632200  1.0
