# generated using pymatgen
data_BaGe2
_symmetry_space_group_name_H-M   Pnma
_cell_length_a   6.87704500
_cell_length_b   9.26992900
_cell_length_c   11.72916900
_cell_angle_alpha   90.00000000
_cell_angle_beta   90.00000000
_cell_angle_gamma   90.00000000
_symmetry_Int_Tables_number   62
_chemical_formula_structural   BaGe2
_chemical_formula_sum   'Ba8 Ge16'
_cell_volume   747.73122644
_cell_formula_units_Z   8
loop_
 _symmetry_equiv_pos_site_id
 _symmetry_equiv_pos_as_xyz
  1  'x, y, z'
  2  '-x, -y, -z'
  3  '-x, -y+1/2, z+1/2'
  4  'x, y+1/2, -z+1/2'
  5  '-x+1/2, y+1/2, -z+1/2'
  6  'x+1/2, -y+1/2, z+1/2'
  7  'x+1/2, -y, -z'
  8  '-x+1/2, y, z'
loop_
 _atom_site_type_symbol
 _atom_site_label
 _atom_site_symmetry_multiplicity
 _atom_site_fract_x
 _atom_site_fract_y
 _atom_site_fract_z
 _atom_site_occupancy
  Ba  Ba0  4  0.25000000  0.01430000  0.30939800  1.0
  Ba  Ba1  4  0.25000000  0.34747900  0.59329100  1.0
  Ge  Ge2  8  0.06252100  0.19197600  0.85030900  1.0
  Ge  Ge3  4  0.25000000  0.19510700  0.04067100  1.0
  Ge  Ge4  4  0.25000000  0.42311100  0.90715500  1.0
