# generated using pymatgen
data_BaGe3
_symmetry_space_group_name_H-M   I4/mmm
_cell_length_a   7.92540000
_cell_length_b   8.55668729
_cell_length_c   7.92540000
_cell_angle_alpha   62.41193227
_cell_angle_beta   90.00000000
_cell_angle_gamma   117.58806773
_symmetry_Int_Tables_number   139
_chemical_formula_structural   BaGe3
_chemical_formula_sum   'Ba4 Ge12'
_cell_volume   406.15070927
_cell_formula_units_Z   4
loop_
 _symmetry_equiv_pos_site_id
 _symmetry_equiv_pos_as_xyz
  1  'x, y, z'
  2  '-x, -y, -z'
  3  '-z, y, x-y'
  4  'z, -y, -x+y'
  5  '-x+y, y, -y-z'
  6  'x-y, -y, y+z'
  7  'y+z, y, -x'
  8  '-y-z, -y, x'
  9  '-x, -y, y+z'
  10  'x, y, -y-z'
  11  'z, -y, x'
  12  '-z, y, -x'
  13  'x-y, -y, -z'
  14  '-x+y, y, z'
  15  '-y-z, -y, -x+y'
  16  'y+z, y, x-y'
loop_
 _atom_site_type_symbol
 _atom_site_label
 _atom_site_symmetry_multiplicity
 _atom_site_fract_x
 _atom_site_fract_y
 _atom_site_fract_z
 _atom_site_occupancy
  Ba  Ba0  2  0.17379500  0.34759000  0.82620500  1.0
  Ba  Ba1  2  0.25000000  0.50000000  0.25000000  1.0
  Ge  Ge2  8  0.22040000  0.80405600  0.77960000  1.0
  Ge  Ge3  4  0.00000000  0.00000000  0.34001900  1.0
