# generated using pymatgen
data_Ba1.5Ge3
_symmetry_space_group_name_H-M   Imm2
_cell_length_a   4.26791200
_cell_length_b   6.60922595
_cell_length_c   6.60922595
_cell_angle_alpha   77.23431952
_cell_angle_beta   71.16309802
_cell_angle_gamma   71.16309802
_symmetry_Int_Tables_number   44
_chemical_formula_structural   Ba1.5Ge3
_chemical_formula_sum   'Ba1.5 Ge3'
_cell_volume   165.57159931
_cell_formula_units_Z   1
loop_
 _symmetry_equiv_pos_site_id
 _symmetry_equiv_pos_as_xyz
  1  'x, y, z'
  2  '-x, -z, -y'
  3  '-x-y-z, y, z'
  4  'x+y+z, -z, -y'
loop_
 _atom_site_type_symbol
 _atom_site_label
 _atom_site_symmetry_multiplicity
 _atom_site_fract_x
 _atom_site_fract_y
 _atom_site_fract_z
 _atom_site_occupancy
  Ba  Ba0  2  0.23286400  0.78133500  0.75293700  0.75
  Ge  Ge1  1  0.00000000  0.34743000  0.65257000  1.0
  Ge  Ge2  1  0.00000000  0.64582800  0.35417200  1.0
  Ge  Ge3  1  0.50000000  0.81340200  0.18659800  1.0
