# generated using pymatgen
data_BaNb2O5
_symmetry_space_group_name_H-M   R3m
_cell_length_a   2.91031000
_cell_length_b   7.22068582
_cell_length_c   7.22068580
_cell_angle_alpha   118.22432274
_cell_angle_beta   97.72107417
_cell_angle_gamma   97.72107415
_symmetry_Int_Tables_number   160
_chemical_formula_structural   BaNb2O5
_chemical_formula_sum   'Ba1 Nb2 O5'
_cell_volume   129.03754981
_cell_formula_units_Z   1
loop_
 _symmetry_equiv_pos_site_id
 _symmetry_equiv_pos_as_xyz
  1  'x, y, z'
  2  'x-y, -y+z, -y'
  3  'x-z, -z, y-z'
  4  'x, z, y'
  5  'x-y, -y, -y+z'
  6  'x-z, y-z, -z'
loop_
 _atom_site_type_symbol
 _atom_site_label
 _atom_site_symmetry_multiplicity
 _atom_site_fract_x
 _atom_site_fract_y
 _atom_site_fract_z
 _atom_site_occupancy
  Ba  Ba0  1  0.98998000  0.00000000  0.00000000  1.0
  Nb  Nb1  3  0.36746300  0.00000000  0.53455700  0.6666666666666667
  O  O2  6  0.05656500  0.20590700  0.77549400  0.8333333333333334
