# generated using pymatgen
data_BaSi3Pt
_symmetry_space_group_name_H-M   I4mm
_cell_length_a   4.43199000
_cell_length_b   4.43199000
_cell_length_c   5.98116050
_cell_angle_alpha   111.74619940
_cell_angle_beta   111.74619941
_cell_angle_gamma   89.99999999
_symmetry_Int_Tables_number   107
_chemical_formula_structural   BaSi3Pt
_chemical_formula_sum   'Ba1 Si3 Pt1'
_cell_volume   100.06712856
_cell_formula_units_Z   1
loop_
 _symmetry_equiv_pos_site_id
 _symmetry_equiv_pos_as_xyz
  1  'x, y, z'
  2  '-y+z, x, z'
  3  '-x+z, -y+z, z'
  4  'y, -x+z, z'
  5  '-x+z, y, z'
  6  'y, x, z'
  7  'x, -y+z, z'
  8  '-y+z, -x+z, z'
loop_
 _atom_site_type_symbol
 _atom_site_label
 _atom_site_symmetry_multiplicity
 _atom_site_fract_x
 _atom_site_fract_y
 _atom_site_fract_z
 _atom_site_occupancy
  Ba  Ba0  1  0.60009700  0.60009700  0.20019400  1.0
  Si  Si1  2  0.35612600  0.85612600  0.71225200  1.0
  Si  Si2  1  0.99656000  0.99656000  0.99312000  1.0
  Pt  Pt3  1  0.24989100  0.24989100  0.49978200  1.0
