# generated using pymatgen
data_Ba2Sb0.4Pb1.6O6
_symmetry_space_group_name_H-M   C2/m
_cell_length_a   6.13110795
_cell_length_b   6.15036645
_cell_length_c   6.15036645
_cell_angle_alpha   89.75035477
_cell_angle_beta   60.23374128
_cell_angle_gamma   60.23374128
_symmetry_Int_Tables_number   12
_chemical_formula_structural   Ba2Sb0.4Pb1.6O6
_chemical_formula_sum   'Ba2 Sb0.4 Pb1.6 O6'
_cell_volume   165.49154902
_cell_formula_units_Z   1
loop_
 _symmetry_equiv_pos_site_id
 _symmetry_equiv_pos_as_xyz
  1  'x, y, z'
  2  '-x, -y, -z'
  3  '-x, -z, -y'
  4  'x, z, y'
loop_
 _atom_site_type_symbol
 _atom_site_label
 _atom_site_symmetry_multiplicity
 _atom_site_fract_x
 _atom_site_fract_y
 _atom_site_fract_z
 _atom_site_occupancy
  Ba  Ba0  2  0.00541700  0.74350600  0.74350600  1.0
  Pb  Pb1  2  0.50000000  0.00000000  0.50000000  0.8
  Sb  Sb2  2  0.50000000  0.00000000  0.50000000  0.2
  O  O3  2  0.00000000  0.28757000  0.71243000  1.0
  O  O4  2  0.43897000  0.81957000  0.81957000  1.0
  O  O5  2  0.50000000  0.29312700  0.70687300  1.0
