# generated using pymatgen
data_BaVS3
_symmetry_space_group_name_H-M   Cmc2_1
_cell_length_a   5.65607500
_cell_length_b   6.75630834
_cell_length_c   6.75630834
_cell_angle_alpha   119.24689640
_cell_angle_beta   90.00000000
_cell_angle_gamma   90.00000000
_symmetry_Int_Tables_number   36
_chemical_formula_structural   BaVS3
_chemical_formula_sum   'Ba2 V2 S6'
_cell_volume   225.27381001
_cell_formula_units_Z   2
loop_
 _symmetry_equiv_pos_site_id
 _symmetry_equiv_pos_as_xyz
  1  'x, y, z'
  2  'x+1/2, -y, -z'
  3  'x, -z, -y'
  4  'x+1/2, z, y'
loop_
 _atom_site_type_symbol
 _atom_site_label
 _atom_site_symmetry_multiplicity
 _atom_site_fract_x
 _atom_site_fract_y
 _atom_site_fract_z
 _atom_site_occupancy
  Ba  Ba0  2  0.25134400  0.66354800  0.33645200  1.0
  V  V1  2  0.01394200  0.02447400  0.97552600  1.0
  S  S2  4  0.24220400  0.15990100  0.31978600  1.0
  S  S3  2  0.25920500  0.17090700  0.82909300  1.0
