# generated using pymatgen
data_BaSn3
_symmetry_space_group_name_H-M   P6_3/mmc
_cell_length_a   5.66709200
_cell_length_b   7.32535600
_cell_length_c   7.32535566
_cell_angle_alpha   120.00000151
_cell_angle_beta   90.00000000
_cell_angle_gamma   90.00000000
_symmetry_Int_Tables_number   194
_chemical_formula_structural   BaSn3
_chemical_formula_sum   'Ba2 Sn6'
_cell_volume   263.35910586
_cell_formula_units_Z   2
loop_
 _symmetry_equiv_pos_site_id
 _symmetry_equiv_pos_as_xyz
  1  'x, y, z'
  2  '-x, -y, -z'
  3  'x+1/2, z, -y+z'
  4  '-x+1/2, -z, y-z'
  5  'x, -y+z, -y'
  6  '-x, y-z, y'
  7  'x+1/2, -y, -z'
  8  '-x+1/2, y, z'
  9  'x, -z, y-z'
  10  '-x, z, -y+z'
  11  'x+1/2, y-z, y'
  12  '-x+1/2, -y+z, -y'
  13  '-x+1/2, -y+z, z'
  14  'x+1/2, y-z, -z'
  15  '-x, -y, -y+z'
  16  'x, y, y-z'
  17  '-x+1/2, -z, -y'
  18  'x+1/2, z, y'
  19  '-x, y-z, -z'
  20  'x, -y+z, z'
  21  '-x+1/2, y, y-z'
  22  'x+1/2, -y, -y+z'
  23  '-x, z, y'
  24  'x, -z, -y'
loop_
 _atom_site_type_symbol
 _atom_site_label
 _atom_site_symmetry_multiplicity
 _atom_site_fract_x
 _atom_site_fract_y
 _atom_site_fract_z
 _atom_site_occupancy
  Ba  Ba0  2  0.25000000  0.33333333  0.66666667  1.0
  Sn  Sn1  6  0.25000000  0.27907600  0.13953800  1.0
