# generated using pymatgen
data_BaVS3
_symmetry_space_group_name_H-M   C222_1
_cell_length_a   5.63223300
_cell_length_b   6.75109399
_cell_length_c   6.80201132
_cell_angle_alpha   60.24731517
_cell_angle_beta   90.00000000
_cell_angle_gamma   90.00000000
_symmetry_Int_Tables_number   20
_chemical_formula_structural   BaVS3
_chemical_formula_sum   'Ba2 V2 S6'
_cell_volume   224.54307927
_cell_formula_units_Z   2
loop_
 _symmetry_equiv_pos_site_id
 _symmetry_equiv_pos_as_xyz
  1  'x, y, z'
  2  'x+1/2, -y, -z'
  3  '-x, y+z, -z'
  4  '-x+1/2, -y-z, z'
loop_
 _atom_site_type_symbol
 _atom_site_label
 _atom_site_symmetry_multiplicity
 _atom_site_fract_x
 _atom_site_fract_y
 _atom_site_fract_z
 _atom_site_occupancy
  Ba  Ba0  2  0.25000000  0.66870900  0.66258200  1.0
  V  V1  2  0.00000000  0.96110500  0.00000000  1.0
  S  S2  4  0.23856700  0.16610600  0.16315900  1.0
  S  S3  2  0.25000000  0.16096800  0.67806400  1.0
