# generated using pymatgen
data_BaSi2
_symmetry_space_group_name_H-M   Pnma
_cell_length_a   6.77785000
_cell_length_b   9.00946800
_cell_length_c   11.60214300
_cell_angle_alpha   90.00000000
_cell_angle_beta   90.00000000
_cell_angle_gamma   90.00000000
_symmetry_Int_Tables_number   62
_chemical_formula_structural   BaSi2
_chemical_formula_sum   'Ba8 Si16'
_cell_volume   708.48280505
_cell_formula_units_Z   8
loop_
 _symmetry_equiv_pos_site_id
 _symmetry_equiv_pos_as_xyz
  1  'x, y, z'
  2  '-x, -y, -z'
  3  '-x, -y+1/2, z+1/2'
  4  'x, y+1/2, -z+1/2'
  5  '-x+1/2, y+1/2, -z+1/2'
  6  'x+1/2, -y+1/2, z+1/2'
  7  'x+1/2, -y, -z'
  8  '-x+1/2, y, z'
loop_
 _atom_site_type_symbol
 _atom_site_label
 _atom_site_symmetry_multiplicity
 _atom_site_fract_x
 _atom_site_fract_y
 _atom_site_fract_z
 _atom_site_occupancy
  Ba  Ba0  4  0.25000000  0.01517300  0.30869000  1.0
  Ba  Ba1  4  0.25000000  0.34069100  0.59335000  1.0
  Si  Si2  8  0.07254100  0.19427000  0.85325600  1.0
  Si  Si3  4  0.25000000  0.19769400  0.03306000  1.0
  Si  Si4  4  0.25000000  0.41709500  0.90799900  1.0
