# generated using pymatgen
data_BaTiO3
_symmetry_space_group_name_H-M   Amm2
_cell_length_a   3.98753100
_cell_length_b   4.12278815
_cell_length_c   4.12278815
_cell_angle_alpha   89.51175874
_cell_angle_beta   90.00000000
_cell_angle_gamma   90.00000000
_symmetry_Int_Tables_number   38
_chemical_formula_structural   BaTiO3
_chemical_formula_sum   'Ba1 Ti1 O3'
_cell_volume   67.77512736
_cell_formula_units_Z   1
loop_
 _symmetry_equiv_pos_site_id
 _symmetry_equiv_pos_as_xyz
  1  'x, y, z'
  2  '-x, z, y'
  3  '-x, y, z'
  4  'x, z, y'
loop_
 _atom_site_type_symbol
 _atom_site_label
 _atom_site_symmetry_multiplicity
 _atom_site_fract_x
 _atom_site_fract_y
 _atom_site_fract_z
 _atom_site_occupancy
  Ba  Ba0  1  0.00000000  0.99252100  0.99252100  1.0
  Ti  Ti1  1  0.50000000  0.47548600  0.47548600  1.0
  O  O2  2  0.50000000  0.02701300  0.50961200  1.0
  O  O3  1  0.00000000  0.51546800  0.51546800  1.0
