# generated using pymatgen
data_BaTiO3
_symmetry_space_group_name_H-M   P6_3/mmc
_cell_length_a   5.78755800
_cell_length_b   5.78755778
_cell_length_c   14.09708500
_cell_angle_alpha   90.00000000
_cell_angle_beta   90.00000000
_cell_angle_gamma   120.00000126
_symmetry_Int_Tables_number   194
_chemical_formula_structural   BaTiO3
_chemical_formula_sum   'Ba6 Ti6 O18'
_cell_volume   408.93157077
_cell_formula_units_Z   6
loop_
 _symmetry_equiv_pos_site_id
 _symmetry_equiv_pos_as_xyz
  1  'x, y, z'
  2  '-x, -y, -z'
  3  'x-y, x, z+1/2'
  4  '-x+y, -x, -z+1/2'
  5  '-y, x-y, z'
  6  'y, -x+y, -z'
  7  '-x, -y, z+1/2'
  8  'x, y, -z+1/2'
  9  '-x+y, -x, z'
  10  'x-y, x, -z'
  11  'y, -x+y, z+1/2'
  12  '-y, x-y, -z+1/2'
  13  '-y, -x, -z+1/2'
  14  'y, x, z+1/2'
  15  '-x, -x+y, -z'
  16  'x, x-y, z'
  17  '-x+y, y, -z+1/2'
  18  'x-y, -y, z+1/2'
  19  'y, x, -z'
  20  '-y, -x, z'
  21  'x, x-y, -z+1/2'
  22  '-x, -x+y, z+1/2'
  23  'x-y, -y, -z'
  24  '-x+y, y, z'
loop_
 _atom_site_type_symbol
 _atom_site_label
 _atom_site_symmetry_multiplicity
 _atom_site_fract_x
 _atom_site_fract_y
 _atom_site_fract_z
 _atom_site_occupancy
  Ba  Ba0  4  0.33333333  0.66666667  0.09667300  1.0
  Ba  Ba1  2  0.00000000  0.00000000  0.25000000  1.0
  Ti  Ti2  4  0.33333333  0.66666667  0.65387300  1.0
  Ti  Ti3  2  0.00000000  0.00000000  0.00000000  1.0
  O  O4  12  0.16527800  0.83472100  0.58056900  1.0
  O  O5  6  0.03584900  0.51792500  0.75000000  1.0
