# generated using pymatgen
data_BaTiO3
_symmetry_space_group_name_H-M   C222_1
_cell_length_a   5.79788156
_cell_length_b   5.79788156
_cell_length_c   14.14208100
_cell_angle_alpha   90.00000000
_cell_angle_beta   90.00000000
_cell_angle_gamma   119.51118447
_symmetry_Int_Tables_number   20
_chemical_formula_structural   BaTiO3
_chemical_formula_sum   'Ba6 Ti6 O18'
_cell_volume   413.71455429
_cell_formula_units_Z   6
loop_
 _symmetry_equiv_pos_site_id
 _symmetry_equiv_pos_as_xyz
  1  'x, y, z'
  2  '-x, -y, z+1/2'
  3  'y, x, -z'
  4  '-y, -x, -z+1/2'
loop_
 _atom_site_type_symbol
 _atom_site_label
 _atom_site_symmetry_multiplicity
 _atom_site_fract_x
 _atom_site_fract_y
 _atom_site_fract_z
 _atom_site_occupancy
  Ba  Ba0  4  0.31835300  0.65100400  0.09615600  1.0
  Ba  Ba1  2  0.00043200  0.99956800  0.75000000  1.0
  Ti  Ti2  4  0.30560300  0.64190500  0.84577100  1.0
  Ti  Ti3  2  0.02935200  0.02935200  0.50000000  1.0
  O  O4  4  0.03164000  0.51873800  0.75382500  1.0
  O  O5  4  0.16339700  0.32623500  0.58068500  1.0
  O  O6  4  0.16427400  0.83392400  0.58029400  1.0
  O  O7  4  0.16740400  0.33532700  0.91915700  1.0
  O  O8  2  0.47983100  0.52016900  0.75000000  1.0
