# generated using pymatgen
data_Ba3.93506494Tl3.83766234Cu1.96753247O12
_symmetry_space_group_name_H-M   Cmce
_cell_length_a   5.50411000
_cell_length_b   5.58574300
_cell_length_c   12.28312762
_cell_angle_alpha   90.00000000
_cell_angle_beta   102.94711800
_cell_angle_gamma   90.00000000
_symmetry_Int_Tables_number   64
_chemical_formula_structural
Ba3.93506494Tl3.83766234Cu1.96753247O12
_chemical_formula_sum   'Ba3.93506494 Tl3.83766234 Cu1.96753247 O12'
_cell_volume   368.03853872
_cell_formula_units_Z   1
loop_
 _symmetry_equiv_pos_site_id
 _symmetry_equiv_pos_as_xyz
  1  'x, y, z'
  2  '-x, -y, -z'
  3  '-x+1/2, y+1/2, -z'
  4  'x+1/2, -y+1/2, z'
  5  'x-z, -y, -z'
  6  '-x+z, y, z'
  7  '-x+z+1/2, -y+1/2, z'
  8  'x-z+1/2, y+1/2, -z'
loop_
 _atom_site_type_symbol
 _atom_site_label
 _atom_site_symmetry_multiplicity
 _atom_site_fract_x
 _atom_site_fract_y
 _atom_site_fract_z
 _atom_site_occupancy
  Ba  Ba0  4  0.08116500  0.50102600  0.16233000  0.9837662337749999
  Tl  Tl1  4  0.20207400  0.01921300  0.40414800  0.959415584425
  Cu  Cu2  2  0.00000000  0.00000000  0.00000000  0.98376623375
  O  O3  4  0.11703900  0.00064700  0.23407800  1.0
  O  O4  4  0.21181800  0.45450800  0.42363600  1.0
  O  O5  4  0.24999300  0.75000000  0.99998600  1.0
