# generated using pymatgen
data_Ba2Pr0.2Gd0.8Cu3O7
_symmetry_space_group_name_H-M   Pmmm
_cell_length_a   3.86602700
_cell_length_b   3.93001500
_cell_length_c   11.83802000
_cell_angle_alpha   90.00000000
_cell_angle_beta   90.00000000
_cell_angle_gamma   90.00000000
_symmetry_Int_Tables_number   47
_chemical_formula_structural   Ba2Pr0.2Gd0.8Cu3O7
_chemical_formula_sum   'Ba2 Pr0.2 Gd0.8 Cu3 O7'
_cell_volume   179.86147893
_cell_formula_units_Z   1
loop_
 _symmetry_equiv_pos_site_id
 _symmetry_equiv_pos_as_xyz
  1  'x, y, z'
  2  '-x, -y, -z'
  3  '-x, -y, z'
  4  'x, y, -z'
  5  'x, -y, -z'
  6  '-x, y, z'
  7  '-x, y, -z'
  8  'x, -y, z'
loop_
 _atom_site_type_symbol
 _atom_site_label
 _atom_site_symmetry_multiplicity
 _atom_site_fract_x
 _atom_site_fract_y
 _atom_site_fract_z
 _atom_site_occupancy
  Ba  Ba0  2  0.50000000  0.50000000  0.18066700  1.0
  Gd  Gd1  1  0.50000000  0.50000000  0.50000000  0.8
  Pr  Pr2  1  0.50000000  0.50000000  0.50000000  0.2
  Cu  Cu3  2  0.00000000  0.00000000  0.35158600  1.0
  Cu  Cu4  1  0.00000000  0.00000000  0.00000000  1.0
  O  O5  2  0.00000000  0.00000000  0.15895200  1.0
  O  O6  2  0.00000000  0.50000000  0.37652300  1.0
  O  O7  2  0.50000000  0.00000000  0.37593700  1.0
  O  O8  1  0.00000000  0.50000000  0.00000000  1.0
