# generated using pymatgen
data_Ba4Eu2Cu6O13
_symmetry_space_group_name_H-M   Fmmm
_cell_length_a   5.54239970
_cell_length_b   5.54239969
_cell_length_c   12.67794195
_cell_angle_alpha   102.38841311
_cell_angle_beta   102.38841310
_cell_angle_gamma   91.06075072
_symmetry_Int_Tables_number   69
_chemical_formula_structural   Ba4Eu2Cu6O13
_chemical_formula_sum   'Ba4 Eu2 Cu6 O13'
_cell_volume   370.66759721
_cell_formula_units_Z   1
loop_
 _symmetry_equiv_pos_site_id
 _symmetry_equiv_pos_as_xyz
  1  'x, y, z'
  2  '-x, -y, -z'
  3  '-x+z, -y+z, z'
  4  'x-z, y-z, -z'
  5  'y-z, x-z, -z'
  6  '-y+z, -x+z, z'
  7  '-y, -x, -z'
  8  'y, x, z'
loop_
 _atom_site_type_symbol
 _atom_site_label
 _atom_site_symmetry_multiplicity
 _atom_site_fract_x
 _atom_site_fract_y
 _atom_site_fract_z
 _atom_site_occupancy
  Ba  Ba0  4  0.16184900  0.16184900  0.80964600  1.0
  Eu  Eu1  2  0.00000000  0.00000000  0.50000000  1.0
  Cu  Cu2  4  0.07054100  0.57274400  0.64328500  1.0
  Cu  Cu3  2  0.26123700  0.73876300  0.00000000  1.0
  O  O4  4  0.15380400  0.69631000  0.85011400  1.0
  O  O5  4  0.18666600  0.68666600  0.37333200  1.0
  O  O6  2  0.18677300  0.18677300  0.37354600  1.0
  O  O7  2  0.31515600  0.31515600  0.63031200  1.0
  O  O8  1  0.50000000  0.50000000  0.00000000  1.0
