# generated using pymatgen
data_Ba2Ce0.1Dy0.9Cu4O8
_symmetry_space_group_name_H-M   Cmmm
_cell_length_a   3.88624600
_cell_length_b   3.89752200
_cell_length_c   13.87885898
_cell_angle_alpha   81.92830133
_cell_angle_beta   90.00000000
_cell_angle_gamma   90.00000000
_symmetry_Int_Tables_number   65
_chemical_formula_structural   Ba2Ce0.1Dy0.9Cu4O8
_chemical_formula_sum   'Ba2 Ce0.1 Dy0.9 Cu4 O8'
_cell_volume   208.13670536
_cell_formula_units_Z   1
loop_
 _symmetry_equiv_pos_site_id
 _symmetry_equiv_pos_as_xyz
  1  'x, y, z'
  2  '-x, -y, -z'
  3  'x, -y, -z'
  4  '-x, y, z'
  5  '-x, y+z, -z'
  6  'x, -y-z, z'
  7  '-x, -y-z, z'
  8  'x, y+z, -z'
loop_
 _atom_site_type_symbol
 _atom_site_label
 _atom_site_symmetry_multiplicity
 _atom_site_fract_x
 _atom_site_fract_y
 _atom_site_fract_z
 _atom_site_occupancy
  Ba  Ba0  2  0.50000000  0.36435600  0.27128800  1.0
  Dy  Dy1  1  0.50000000  0.50000000  0.00000000  0.9
  Ce  Ce2  1  0.50000000  0.50000000  0.00000000  0.1
  Cu  Cu3  2  0.00000000  0.06124300  0.87751400  1.0
  Cu  Cu4  2  0.00000000  0.21262900  0.57474200  1.0
  O  O5  2  0.00000000  0.14532600  0.70934800  1.0
  O  O6  2  0.00000000  0.28153800  0.43692400  1.0
  O  O7  2  0.00000000  0.44812900  0.10374200  1.0
  O  O8  2  0.50000000  0.05203500  0.89593000  1.0
