# generated using pymatgen
data_Ba4Pr0.6Y1.4Cu6O14
_symmetry_space_group_name_H-M   Pmmm
_cell_length_a   3.88537900
_cell_length_b   7.88274500
_cell_length_c   11.87528400
_cell_angle_alpha   90.00000000
_cell_angle_beta   90.00000000
_cell_angle_gamma   90.00000000
_symmetry_Int_Tables_number   47
_chemical_formula_structural   Ba4Pr0.6Y1.4Cu6O14
_chemical_formula_sum   'Ba4 Pr0.6 Y1.4 Cu6 O14'
_cell_volume   363.70968933
_cell_formula_units_Z   1
loop_
 _symmetry_equiv_pos_site_id
 _symmetry_equiv_pos_as_xyz
  1  'x, y, z'
  2  '-x, -y, -z'
  3  '-x, -y, z'
  4  'x, y, -z'
  5  'x, -y, -z'
  6  '-x, y, z'
  7  '-x, y, -z'
  8  'x, -y, z'
loop_
 _atom_site_type_symbol
 _atom_site_label
 _atom_site_symmetry_multiplicity
 _atom_site_fract_x
 _atom_site_fract_y
 _atom_site_fract_z
 _atom_site_occupancy
  Ba  Ba0  2  0.50000000  0.00000000  0.18088500  1.0
  Ba  Ba1  2  0.50000000  0.50000000  0.17967100  1.0
  Pr  Pr2  1  0.50000000  0.50000000  0.50000000  0.6
  Y  Y3  1  0.50000000  0.50000000  0.50000000  0.4
  Y  Y4  1  0.50000000  0.00000000  0.50000000  1.0
  Cu  Cu5  4  0.00000000  0.24672000  0.34853600  1.0
  Cu  Cu6  2  0.00000000  0.24972500  0.00000000  1.0
  O  O7  4  0.00000000  0.24937000  0.15778600  1.0
  O  O8  4  0.50000000  0.24175200  0.37468200  1.0
  O  O9  2  0.00000000  0.00000000  0.37969600  1.0
  O  O10  2  0.00000000  0.50000000  0.36935200  1.0
  O  O11  1  0.00000000  0.00000000  0.00000000  1.0
  O  O12  1  0.00000000  0.50000000  0.00000000  1.0
