# generated using pymatgen
data_Ba4Pr1.6Y0.4Cu6O14
_symmetry_space_group_name_H-M   Cmmm
_cell_length_a   3.94992900
_cell_length_b   7.74232200
_cell_length_c   12.49432076
_cell_angle_alpha   108.04920572
_cell_angle_beta   90.00000000
_cell_angle_gamma   90.00000000
_symmetry_Int_Tables_number   65
_chemical_formula_structural   Ba4Pr1.6Y0.4Cu6O14
_chemical_formula_sum   'Ba4 Pr1.6 Y0.4 Cu6 O14'
_cell_volume   363.29392204
_cell_formula_units_Z   1
loop_
 _symmetry_equiv_pos_site_id
 _symmetry_equiv_pos_as_xyz
  1  'x, y, z'
  2  '-x, -y, -z'
  3  'x, -y, -z'
  4  '-x, y, z'
  5  '-x, y-z, -z'
  6  'x, -y+z, z'
  7  '-x, -y+z, z'
  8  'x, y-z, -z'
loop_
 _atom_site_type_symbol
 _atom_site_label
 _atom_site_symmetry_multiplicity
 _atom_site_fract_x
 _atom_site_fract_y
 _atom_site_fract_z
 _atom_site_occupancy
  Ba  Ba0  2  0.50000000  0.15957500  0.31915000  1.0
  Ba  Ba1  2  0.50000000  0.33984000  0.67968000  1.0
  Pr  Pr2  1  0.50000000  0.50000000  0.00000000  1.0
  Y  Y3  1  0.50000000  0.00000000  0.00000000  0.4
  Pr  Pr4  1  0.50000000  0.00000000  0.00000000  0.6
  Cu  Cu5  4  0.00000000  0.17202100  0.84985600  1.0
  Cu  Cu6  2  0.00000000  0.00000000  0.50000000  1.0
  O  O7  4  0.00000000  0.07893000  0.65842000  1.0
  O  O8  4  0.50000000  0.17829900  0.87399300  1.0
  O  O9  2  0.00000000  0.05983300  0.11966600  1.0
  O  O10  2  0.00000000  0.43511400  0.87022800  1.0
  O  O11  2  0.50000000  0.00000000  0.50000000  1.0
