# generated using pymatgen
data_Ba2Pr0.9Y0.1Cu4O8
_symmetry_space_group_name_H-M   Cmmm
_cell_length_a   3.92911000
_cell_length_b   3.94970800
_cell_length_c   13.95458511
_cell_angle_alpha   90.00000000
_cell_angle_beta   98.09310222
_cell_angle_gamma   90.00000000
_symmetry_Int_Tables_number   65
_chemical_formula_structural   Ba2Pr0.9Y0.1Cu4O8
_chemical_formula_sum   'Ba2 Pr0.9 Y0.1 Cu4 O8'
_cell_volume   214.40214038
_cell_formula_units_Z   1
loop_
 _symmetry_equiv_pos_site_id
 _symmetry_equiv_pos_as_xyz
  1  'x, y, z'
  2  '-x, -y, -z'
  3  '-x, y, -z'
  4  'x, -y, z'
  5  'x-z, -y, -z'
  6  '-x+z, y, z'
  7  '-x+z, -y, z'
  8  'x-z, y, -z'
loop_
 _atom_site_type_symbol
 _atom_site_label
 _atom_site_symmetry_multiplicity
 _atom_site_fract_x
 _atom_site_fract_y
 _atom_site_fract_z
 _atom_site_occupancy
  Ba  Ba0  2  0.36298100  0.50000000  0.72596200  1.0
  Pr  Pr1  1  0.50000000  0.50000000  0.00000000  0.9
  Y  Y2  1  0.50000000  0.50000000  0.00000000  0.1
  Cu  Cu3  2  0.06506100  0.00000000  0.13012200  1.0
  Cu  Cu4  2  0.21300200  0.00000000  0.42600400  1.0
  O  O5  2  0.05634500  0.50000000  0.11269000  1.0
  O  O6  2  0.14629600  0.00000000  0.29259200  1.0
  O  O7  2  0.28142100  0.00000000  0.56284200  1.0
  O  O8  2  0.44421400  0.00000000  0.88842800  1.0
