# generated using pymatgen
data_Ba1.93370166Nd0.96685083Co0.96685083Cu1.93370166O7
_symmetry_space_group_name_H-M   Pmmm
_cell_length_a   3.91579100
_cell_length_b   3.94672900
_cell_length_c   11.96047800
_cell_angle_alpha   90.00000000
_cell_angle_beta   90.00000000
_cell_angle_gamma   90.00000000
_symmetry_Int_Tables_number   47
_chemical_formula_structural
Ba1.93370166Nd0.96685083Co0.96685083Cu1.93370166O7
_chemical_formula_sum
'Ba1.93370166 Nd0.96685083 Co0.96685083 Cu1.93370166 O7'
_cell_volume   184.84399542
_cell_formula_units_Z   1
loop_
 _symmetry_equiv_pos_site_id
 _symmetry_equiv_pos_as_xyz
  1  'x, y, z'
  2  '-x, -y, -z'
  3  '-x, -y, z'
  4  'x, y, -z'
  5  'x, -y, -z'
  6  '-x, y, z'
  7  '-x, y, -z'
  8  'x, -y, z'
loop_
 _atom_site_type_symbol
 _atom_site_label
 _atom_site_symmetry_multiplicity
 _atom_site_fract_x
 _atom_site_fract_y
 _atom_site_fract_z
 _atom_site_occupancy
  Ba  Ba0  2  0.50000000  0.50000000  0.18386000  0.96685082875
  Nd  Nd1  1  0.50000000  0.50000000  0.50000000  0.9668508286999999
  Co  Co2  1  0.00000000  0.00000000  0.00000000  0.9668508286999999
  Cu  Cu3  2  0.00000000  0.00000000  0.35652300  0.96685082875
  O  O4  2  0.00000000  0.00000000  0.15056100  1.0
  O  O5  2  0.00000000  0.50000000  0.37184500  1.0
  O  O6  2  0.50000000  0.00000000  0.37172200  1.0
  O  O7  1  0.00000000  0.50000000  0.00000000  1.0
