# generated using pymatgen
data_Ba2Ca0.9Ce0.1Tl2Cu2O8
_symmetry_space_group_name_H-M   I4/mmm
_cell_length_a   3.88878800
_cell_length_b   3.88878800
_cell_length_c   15.44888372
_cell_angle_alpha   97.23041303
_cell_angle_beta   97.23041303
_cell_angle_gamma   90.00000002
_symmetry_Int_Tables_number   139
_chemical_formula_structural   Ba2Ca0.9Ce0.1Tl2Cu2O8
_chemical_formula_sum   'Ba2 Ca0.9 Ce0.1 Tl2 Cu2 O8'
_cell_volume   229.89778014
_cell_formula_units_Z   1
loop_
 _symmetry_equiv_pos_site_id
 _symmetry_equiv_pos_as_xyz
  1  'x, y, z'
  2  '-x, -y, -z'
  3  '-y+z, x, z'
  4  'y-z, -x, -z'
  5  '-x+z, -y+z, z'
  6  'x-z, y-z, -z'
  7  'y, -x+z, z'
  8  '-y, x-z, -z'
  9  'x-z, -y, -z'
  10  '-x+z, y, z'
  11  '-y, -x, -z'
  12  'y, x, z'
  13  '-x, y-z, -z'
  14  'x, -y+z, z'
  15  'y-z, x-z, -z'
  16  '-y+z, -x+z, z'
loop_
 _atom_site_type_symbol
 _atom_site_label
 _atom_site_symmetry_multiplicity
 _atom_site_fract_x
 _atom_site_fract_y
 _atom_site_fract_z
 _atom_site_occupancy
  Ba  Ba0  2  0.11721200  0.11721200  0.23442400  1.0
  Ca  Ca1  1  0.00000000  0.00000000  0.00000000  0.9
  Ce  Ce2  1  0.00000000  0.00000000  0.00000000  0.1
  Tl  Tl3  2  0.28771600  0.28771600  0.57543200  1.0
  Cu  Cu4  2  0.44939900  0.44939900  0.89879800  1.0
  O  O5  4  0.05214500  0.55214500  0.10429000  1.0
  O  O6  2  0.21927500  0.21927500  0.43855000  1.0
  O  O7  2  0.35443800  0.35443800  0.70887600  1.0
