# generated using pymatgen
data_Ba10CaY4(Cu3O7)5
_symmetry_space_group_name_H-M   P-1
_cell_length_a   8.63059200
_cell_length_b   8.70969876
_cell_length_c   12.46330071
_cell_angle_alpha   73.65886598
_cell_angle_beta   81.82956342
_cell_angle_gamma   89.25424628
_symmetry_Int_Tables_number   2
_chemical_formula_structural   Ba10CaY4(Cu3O7)5
_chemical_formula_sum   'Ba10 Ca1 Y4 Cu15 O35'
_cell_volume   889.53441420
_cell_formula_units_Z   1
loop_
 _symmetry_equiv_pos_site_id
 _symmetry_equiv_pos_as_xyz
  1  'x, y, z'
  2  '-x, -y, -z'
loop_
 _atom_site_type_symbol
 _atom_site_label
 _atom_site_symmetry_multiplicity
 _atom_site_fract_x
 _atom_site_fract_y
 _atom_site_fract_z
 _atom_site_occupancy
  Ba  Ba0  2  0.06269400  0.62593700  0.18535200  1.0
  Ba  Ba1  2  0.13611300  0.77306500  0.81718300  1.0
  Ba  Ba2  2  0.26277500  0.02675500  0.18303800  1.0
  Ba  Ba3  2  0.33598500  0.17347800  0.81710400  1.0
  Ba  Ba4  2  0.46321600  0.42695900  0.18293200  1.0
  Ca  Ca5  1  0.00000000  0.50000000  0.50000000  1.0
  Y  Y6  2  0.19879500  0.89823500  0.50001000  1.0
  Y  Y7  2  0.39795400  0.30099400  0.50004600  1.0
  Cu  Cu8  2  0.07053000  0.14335200  0.64521600  1.0
  Cu  Cu9  2  0.12852000  0.25966000  0.35478300  1.0
  Cu  Cu10  2  0.19997300  0.40013800  0.99999900  1.0
  Cu  Cu11  2  0.26929300  0.54154300  0.64510400  1.0
  Cu  Cu12  2  0.32733000  0.65770600  0.35485100  1.0
  Cu  Cu13  2  0.39998100  0.79990900  0.00006700  1.0
  Cu  Cu14  2  0.47093300  0.94202800  0.64494900  1.0
  Cu  Cu15  1  0.00000000  0.00000000  0.00000000  1.0
  O  O16  2  0.02423500  0.04845000  0.37891600  1.0
  O  O17  2  0.03180400  0.06346300  0.84143400  1.0
  O  O18  2  0.07798300  0.65567200  0.62427000  1.0
  O  O19  2  0.09990400  0.19966200  0.00009300  1.0
  O  O20  2  0.12770600  0.75509000  0.37567700  1.0
  O  O21  2  0.16837300  0.33643800  0.15850800  1.0
  O  O22  2  0.18032600  0.34746700  0.62496300  1.0
  O  O23  2  0.23031800  0.44748700  0.37504900  1.0
  O  O24  2  0.23201000  0.46365200  0.84149600  1.0
  O  O25  2  0.27588500  0.05114100  0.62044300  1.0
  O  O26  2  0.29963200  0.59952000  0.00016000  1.0
  O  O27  2  0.32398800  0.14754100  0.37954100  1.0
  O  O28  2  0.36852800  0.73666000  0.15823000  1.0
  O  O29  2  0.37626300  0.75107300  0.62150000  1.0
  O  O30  2  0.42480200  0.84817000  0.37858300  1.0
  O  O31  2  0.43195400  0.86384300  0.84097400  1.0
  O  O32  2  0.47593300  0.45196200  0.62013700  1.0
  O  O33  1  0.50000000  0.00000000  0.00000000  1.0
