# generated using pymatgen
data_Ba2Ho(CuO2)4
_symmetry_space_group_name_H-M   Cmmm
_cell_length_a   3.87946000
_cell_length_b   3.89434800
_cell_length_c   13.87398175
_cell_angle_alpha   98.06793566
_cell_angle_beta   90.00000000
_cell_angle_gamma   90.00000000
_symmetry_Int_Tables_number   65
_chemical_formula_structural   Ba2Ho(CuO2)4
_chemical_formula_sum   'Ba2 Ho1 Cu4 O8'
_cell_volume   207.53304026
_cell_formula_units_Z   1
loop_
 _symmetry_equiv_pos_site_id
 _symmetry_equiv_pos_as_xyz
  1  'x, y, z'
  2  '-x, -y, -z'
  3  'x, -y, -z'
  4  '-x, y, z'
  5  '-x, y-z, -z'
  6  'x, -y+z, z'
  7  '-x, -y+z, z'
  8  'x, y-z, -z'
loop_
 _atom_site_type_symbol
 _atom_site_label
 _atom_site_symmetry_multiplicity
 _atom_site_fract_x
 _atom_site_fract_y
 _atom_site_fract_z
 _atom_site_occupancy
  Ba  Ba0  2  0.50000000  0.36445300  0.72890600  1.0
  Ho  Ho1  1  0.50000000  0.50000000  0.00000000  1.0
  Cu  Cu2  2  0.00000000  0.06091700  0.12183400  1.0
  Cu  Cu3  2  0.00000000  0.21260300  0.42520600  1.0
  O  O4  2  0.00000000  0.14524900  0.29049800  1.0
  O  O5  2  0.00000000  0.28154500  0.56309000  1.0
  O  O6  2  0.00000000  0.44850800  0.89701600  1.0
  O  O7  2  0.50000000  0.05161000  0.10322000  1.0
