# generated using pymatgen
data_Ba1La1Ti1Cu1O5.5
_symmetry_space_group_name_H-M   F-43m
_cell_length_a   5.87564693
_cell_length_b   5.87564693
_cell_length_c   5.87564693
_cell_angle_alpha   60.00000000
_cell_angle_beta   60.00000000
_cell_angle_gamma   60.00000000
_symmetry_Int_Tables_number   216
_chemical_formula_structural   Ba1La1Ti1Cu1O5.5
_chemical_formula_sum   'Ba1 La1 Ti1 Cu1 O5.5'
_cell_volume   143.43398849
_cell_formula_units_Z   1
loop_
 _symmetry_equiv_pos_site_id
 _symmetry_equiv_pos_as_xyz
  1  'x, y, z'
  2  'y, -x-y-z, x'
  3  '-x-y-z, z, y'
  4  'z, x, -x-y-z'
  5  'y, x, -x-y-z'
  6  '-x-y-z, y, z'
  7  'z, -x-y-z, x'
  8  'x, z, y'
  9  'z, y, -x-y-z'
  10  'x, -x-y-z, z'
  11  'y, z, x'
  12  '-x-y-z, x, y'
  13  '-x-y-z, x, z'
  14  'z, y, x'
  15  'x, -x-y-z, y'
  16  'y, z, -x-y-z'
  17  '-x-y-z, y, x'
  18  'z, -x-y-z, y'
  19  'x, z, -x-y-z'
  20  'y, x, z'
  21  'z, x, y'
  22  'x, y, -x-y-z'
  23  'y, -x-y-z, z'
  24  '-x-y-z, z, x'
loop_
 _atom_site_type_symbol
 _atom_site_label
 _atom_site_symmetry_multiplicity
 _atom_site_fract_x
 _atom_site_fract_y
 _atom_site_fract_z
 _atom_site_occupancy
  Ba  Ba0  1  0.25000000  0.25000000  0.25000000  1.0
  La  La1  1  0.50000000  0.50000000  0.50000000  1.0
  Ti  Ti2  1  0.75000000  0.75000000  0.75000000  1.0
  Cu  Cu3  1  0.00000000  0.00000000  0.00000000  1.0
  O  O4  6  0.22843398  0.22843398  0.77156602  0.9166666666666666
