# generated using pymatgen
data_Ba6Pr1.2Y1.8Cu12O24
_symmetry_space_group_name_H-M   P-1
_cell_length_a   5.53221100
_cell_length_b   8.71235516
_cell_length_c   13.93952996
_cell_angle_alpha   82.85456410
_cell_angle_beta   84.36950212
_cell_angle_gamma   71.89545706
_symmetry_Int_Tables_number   2
_chemical_formula_structural   Ba6Pr1.2Y1.8Cu12O24
_chemical_formula_sum   'Ba6 Pr1.2 Y1.8 Cu12 O24'
_cell_volume   632.38214877
_cell_formula_units_Z   1
loop_
 _symmetry_equiv_pos_site_id
 _symmetry_equiv_pos_as_xyz
  1  'x, y, z'
  2  '-x, -y, -z'
loop_
 _atom_site_type_symbol
 _atom_site_label
 _atom_site_symmetry_multiplicity
 _atom_site_fract_x
 _atom_site_fract_y
 _atom_site_fract_z
 _atom_site_occupancy
  Ba  Ba0  2  0.04525300  0.54518500  0.72845300  1.0
  Ba  Ba1  2  0.28765600  0.78798800  0.27298600  1.0
  Ba  Ba2  2  0.37864100  0.87892700  0.72695500  1.0
  Pr  Pr3  2  0.33425400  0.83169500  0.00000200  0.6
  Y  Y4  2  0.33425400  0.83169500  0.00000200  0.4
  Y  Y5  1  0.00000000  0.50000000  0.00000000  1.0
  Cu  Cu6  2  0.09594900  0.09607000  0.42440800  1.0
  Cu  Cu7  2  0.14453700  0.14722300  0.12751500  1.0
  Cu  Cu8  2  0.18712400  0.18935200  0.87229500  1.0
  Cu  Cu9  2  0.23752200  0.23753000  0.57564800  1.0
  Cu  Cu10  2  0.42930300  0.42917200  0.42431600  1.0
  Cu  Cu11  2  0.47894800  0.47867900  0.12702800  1.0
  O  O12  2  0.01838000  0.01842900  0.88911800  1.0
  O  O13  2  0.07311500  0.07311300  0.56236700  1.0
  O  O14  2  0.11801500  0.11783500  0.29054500  1.0
  O  O15  2  0.14529000  0.64466300  0.10916200  1.0
  O  O16  2  0.18171100  0.68103500  0.89076800  1.0
  O  O17  2  0.21554800  0.21521000  0.70949700  1.0
  O  O18  2  0.26073900  0.26025300  0.43787400  1.0
  O  O19  2  0.30746600  0.31992200  0.10692100  1.0
  O  O20  2  0.34276300  0.35551500  0.89303700  1.0
  O  O21  2  0.40654100  0.40608300  0.56219100  1.0
  O  O22  2  0.45125100  0.45126000  0.29038100  1.0
  O  O23  2  0.48109100  0.98124400  0.11312500  1.0
