# generated using pymatgen
data_Ba2Ca0.05Tm0.95Cu4O8
_symmetry_space_group_name_H-M   Cmmm
_cell_length_a   3.86529700
_cell_length_b   3.88695800
_cell_length_c   13.86982093
_cell_angle_alpha   98.05495579
_cell_angle_beta   90.00000000
_cell_angle_gamma   90.00000000
_symmetry_Int_Tables_number   65
_chemical_formula_structural   Ba2Ca0.05Tm0.95Cu4O8
_chemical_formula_sum   'Ba2 Ca0.05 Tm0.95 Cu4 O8'
_cell_volume   206.32772992
_cell_formula_units_Z   1
loop_
 _symmetry_equiv_pos_site_id
 _symmetry_equiv_pos_as_xyz
  1  'x, y, z'
  2  '-x, -y, -z'
  3  'x, -y, -z'
  4  '-x, y, z'
  5  '-x, y-z, -z'
  6  'x, -y+z, z'
  7  '-x, -y+z, z'
  8  'x, y-z, -z'
loop_
 _atom_site_type_symbol
 _atom_site_label
 _atom_site_symmetry_multiplicity
 _atom_site_fract_x
 _atom_site_fract_y
 _atom_site_fract_z
 _atom_site_occupancy
  Ba  Ba0  2  0.50000000  0.36477200  0.72954400  1.0
  Tm  Tm1  1  0.50000000  0.50000000  0.00000000  0.95
  Ca  Ca2  1  0.50000000  0.50000000  0.00000000  0.05
  Cu  Cu3  2  0.00000000  0.06011500  0.12023000  1.0
  Cu  Cu4  2  0.00000000  0.21254700  0.42509400  1.0
  O  O5  2  0.00000000  0.14512200  0.29024400  1.0
  O  O6  2  0.00000000  0.28153800  0.56307600  1.0
  O  O7  2  0.00000000  0.44934200  0.89868400  1.0
  O  O8  2  0.50000000  0.05069200  0.10138400  1.0
