# generated using pymatgen
data_Ba4Pr1.6Y0.4Cu6O14
_symmetry_space_group_name_H-M   P-4m2
_cell_length_a   3.90420000
_cell_length_b   3.90420000
_cell_length_c   23.91609800
_cell_angle_alpha   90.00000000
_cell_angle_beta   90.00000000
_cell_angle_gamma   90.00000000
_symmetry_Int_Tables_number   115
_chemical_formula_structural   Ba4Pr1.6Y0.4Cu6O14
_chemical_formula_sum   'Ba4 Pr1.6 Y0.4 Cu6 O14'
_cell_volume   364.54776383
_cell_formula_units_Z   1
loop_
 _symmetry_equiv_pos_site_id
 _symmetry_equiv_pos_as_xyz
  1  'x, y, z'
  2  'y, -x, -z'
  3  '-x, -y, z'
  4  '-y, x, -z'
  5  '-x, y, z'
  6  '-y, -x, -z'
  7  'x, -y, z'
  8  'y, x, -z'
loop_
 _atom_site_type_symbol
 _atom_site_label
 _atom_site_symmetry_multiplicity
 _atom_site_fract_x
 _atom_site_fract_y
 _atom_site_fract_z
 _atom_site_occupancy
  Ba  Ba0  2  0.50000000  0.50000000  0.15888300  1.0
  Ba  Ba1  2  0.50000000  0.50000000  0.33977200  1.0
  Pr  Pr2  1  0.50000000  0.50000000  0.50000000  1.0
  Y  Y3  1  0.50000000  0.50000000  0.00000000  0.4
  Pr  Pr4  1  0.50000000  0.50000000  0.00000000  0.6
  Cu  Cu5  2  0.00000000  0.00000000  0.07309700  1.0
  Cu  Cu6  2  0.00000000  0.00000000  0.24946000  1.0
  Cu  Cu7  2  0.00000000  0.00000000  0.42213800  1.0
  O  O8  2  0.00000000  0.00000000  0.17093300  1.0
  O  O9  2  0.00000000  0.00000000  0.32791600  1.0
  O  O10  2  0.00000000  0.50000000  0.06108700  1.0
  O  O11  2  0.00000000  0.50000000  0.43420500  1.0
  O  O12  2  0.00000000  0.50000000  0.56425400  1.0
  O  O13  2  0.00000000  0.50000000  0.75097900  1.0
  O  O14  2  0.00000000  0.50000000  0.94035600  1.0
