# generated using pymatgen
data_Ba4Pr0.4Eu1.6Cu6O14
_symmetry_space_group_name_H-M   Cmmm
_cell_length_a   3.87917800
_cell_length_b   7.88532800
_cell_length_c   12.58992067
_cell_angle_alpha   108.24979164
_cell_angle_beta   90.00000000
_cell_angle_gamma   90.00000000
_symmetry_Int_Tables_number   65
_chemical_formula_structural   Ba4Pr0.4Eu1.6Cu6O14
_chemical_formula_sum   'Ba4 Pr0.4 Eu1.6 Cu6 O14'
_cell_volume   365.73710589
_cell_formula_units_Z   1
loop_
 _symmetry_equiv_pos_site_id
 _symmetry_equiv_pos_as_xyz
  1  'x, y, z'
  2  '-x, -y, -z'
  3  'x, -y, -z'
  4  '-x, y, z'
  5  '-x, y-z, -z'
  6  'x, -y+z, z'
  7  '-x, -y+z, z'
  8  'x, y-z, -z'
loop_
 _atom_site_type_symbol
 _atom_site_label
 _atom_site_symmetry_multiplicity
 _atom_site_fract_x
 _atom_site_fract_y
 _atom_site_fract_z
 _atom_site_occupancy
  Ba  Ba0  2  0.50000000  0.16015300  0.32030600  1.0
  Ba  Ba1  2  0.50000000  0.34042000  0.68084000  1.0
  Pr  Pr2  1  0.50000000  0.00000000  0.00000000  0.4
  Eu  Eu3  1  0.50000000  0.00000000  0.00000000  0.6
  Eu  Eu4  1  0.50000000  0.50000000  0.00000000  1.0
  Cu  Cu5  4  0.00000000  0.17549600  0.84703400  1.0
  Cu  Cu6  2  0.00000000  0.00000000  0.50000000  1.0
  O  O7  4  0.00000000  0.07823500  0.65623700  1.0
  O  O8  4  0.50000000  0.18794200  0.87197400  1.0
  O  O9  2  0.00000000  0.06487000  0.12974000  1.0
  O  O10  2  0.00000000  0.25006700  0.50013400  1.0
  O  O11  2  0.00000000  0.43639900  0.87279800  1.0
