# generated using pymatgen
data_Ba2Pr0.2Eu0.8Cu4O8
_symmetry_space_group_name_H-M   Cmmm
_cell_length_a   3.88129400
_cell_length_b   3.91390400
_cell_length_c   13.99946854
_cell_angle_alpha   90.00000000
_cell_angle_beta   97.96816754
_cell_angle_gamma   90.00000000
_symmetry_Int_Tables_number   65
_chemical_formula_structural   Ba2Pr0.2Eu0.8Cu4O8
_chemical_formula_sum   'Ba2 Pr0.2 Eu0.8 Cu4 O8'
_cell_volume   210.61285558
_cell_formula_units_Z   1
loop_
 _symmetry_equiv_pos_site_id
 _symmetry_equiv_pos_as_xyz
  1  'x, y, z'
  2  '-x, -y, -z'
  3  '-x, y, -z'
  4  'x, -y, z'
  5  'x-z, -y, -z'
  6  '-x+z, y, z'
  7  '-x+z, -y, z'
  8  'x-z, y, -z'
loop_
 _atom_site_type_symbol
 _atom_site_label
 _atom_site_symmetry_multiplicity
 _atom_site_fract_x
 _atom_site_fract_y
 _atom_site_fract_z
 _atom_site_occupancy
  Ba  Ba0  2  0.36463600  0.50000000  0.72927200  1.0
  Eu  Eu1  1  0.50000000  0.50000000  0.00000000  0.8
  Pr  Pr2  1  0.50000000  0.50000000  0.00000000  0.2
  Cu  Cu3  2  0.06277600  0.00000000  0.12555200  1.0
  Cu  Cu4  2  0.21270300  0.00000000  0.42540600  1.0
  O  O5  2  0.05492000  0.50000000  0.10984000  1.0
  O  O6  2  0.14592600  0.00000000  0.29185200  1.0
  O  O7  2  0.28081500  0.00000000  0.56163000  1.0
  O  O8  2  0.44559300  0.00000000  0.89118600  1.0
