# generated using pymatgen
data_Ba6Pr1.8Y1.2Cu12O24
_symmetry_space_group_name_H-M   Cmmm
_cell_length_a   3.91559800
_cell_length_b   3.93820300
_cell_length_c   41.54960195
_cell_angle_alpha   90.00000000
_cell_angle_beta   92.70075199
_cell_angle_gamma   90.00000000
_symmetry_Int_Tables_number   65
_chemical_formula_structural   Ba6Pr1.8Y1.2Cu12O24
_chemical_formula_sum   'Ba6 Pr1.8 Y1.2 Cu12 O24'
_cell_volume   640.00063724
_cell_formula_units_Z   1
loop_
 _symmetry_equiv_pos_site_id
 _symmetry_equiv_pos_as_xyz
  1  'x, y, z'
  2  '-x, -y, -z'
  3  '-x, y, -z'
  4  'x, -y, z'
  5  'x-z, -y, -z'
  6  '-x+z, y, z'
  7  '-x+z, -y, z'
  8  'x-z, y, -z'
loop_
 _atom_site_type_symbol
 _atom_site_label
 _atom_site_symmetry_multiplicity
 _atom_site_fract_x
 _atom_site_fract_y
 _atom_site_fract_z
 _atom_site_occupancy
  Ba  Ba0  2  0.12113000  0.50000000  0.24226100  1.0
  Ba  Ba1  2  0.21222300  0.50000000  0.42444600  1.0
  Ba  Ba2  2  0.45477400  0.50000000  0.90954700  1.0
  Pr  Pr3  2  0.16669400  0.50000000  0.33333333  0.9
  Y  Y4  2  0.16669400  0.50000000  0.33333333  0.1
  Y  Y5  1  0.50000000  0.50000000  0.00000000  1.0
  Cu  Cu6  2  0.02058500  0.00000000  0.04116900  1.0
  Cu  Cu7  2  0.07077300  0.00000000  0.14154500  1.0
  Cu  Cu8  2  0.26243700  0.00000000  0.52487300  1.0
  Cu  Cu9  2  0.31174800  0.00000000  0.62349800  1.0
  Cu  Cu10  2  0.35491400  0.00000000  0.70982900  1.0
  Cu  Cu11  2  0.40428400  0.00000000  0.80856800  1.0
  O  O12  2  0.01748100  0.50000000  0.03496100  1.0
  O  O13  2  0.04847800  0.00000000  0.09695700  1.0
  O  O14  2  0.09361700  0.00000000  0.18723400  1.0
  O  O15  2  0.14818500  0.00000000  0.29636900  1.0
  O  O16  2  0.18515300  0.00000000  0.37030400  1.0
  O  O17  2  0.23962700  0.00000000  0.47925400  1.0
  O  O18  2  0.28463300  0.00000000  0.56926700  1.0
  O  O19  2  0.31459900  0.50000000  0.62919700  1.0
  O  O20  2  0.35207000  0.50000000  0.70414000  1.0
  O  O21  2  0.38204900  0.00000000  0.76409900  1.0
  O  O22  2  0.42710900  0.00000000  0.85421700  1.0
  O  O23  2  0.48273100  0.00000000  0.96546200  1.0
