# generated using pymatgen
data_Ba1.91518468Eu0.95759234Co0.95759234Cu1.91518468O7
_symmetry_space_group_name_H-M   Pmmm
_cell_length_a   3.90179100
_cell_length_b   3.92760500
_cell_length_c   11.98501600
_cell_angle_alpha   90.00000000
_cell_angle_beta   90.00000000
_cell_angle_gamma   90.00000000
_symmetry_Int_Tables_number   47
_chemical_formula_structural
Ba1.91518468Eu0.95759234Co0.95759234Cu1.91518468O7
_chemical_formula_sum
'Ba1.91518468 Eu0.95759234 Co0.95759234 Cu1.91518468 O7'
_cell_volume   183.66670087
_cell_formula_units_Z   1
loop_
 _symmetry_equiv_pos_site_id
 _symmetry_equiv_pos_as_xyz
  1  'x, y, z'
  2  '-x, -y, -z'
  3  '-x, -y, z'
  4  'x, y, -z'
  5  'x, -y, -z'
  6  '-x, y, z'
  7  '-x, y, -z'
  8  'x, -y, z'
loop_
 _atom_site_type_symbol
 _atom_site_label
 _atom_site_symmetry_multiplicity
 _atom_site_fract_x
 _atom_site_fract_y
 _atom_site_fract_z
 _atom_site_occupancy
  Ba  Ba0  2  0.50000000  0.50000000  0.18524200  0.95759233925
  Eu  Eu1  1  0.50000000  0.50000000  0.50000000  0.9575923393
  Co  Co2  1  0.00000000  0.00000000  0.00000000  0.9575923393
  Cu  Cu3  2  0.00000000  0.00000000  0.35767300  0.95759233925
  O  O4  2  0.00000000  0.00000000  0.15019300  1.0
  O  O5  2  0.00000000  0.50000000  0.37205500  1.0
  O  O6  2  0.50000000  0.00000000  0.37175800  1.0
  O  O7  1  0.00000000  0.50000000  0.00000000  1.0
