# generated using pymatgen
data_Ba2Y0.8Ga0.2Cu4O8
_symmetry_space_group_name_H-M   Cmmm
_cell_length_a   3.88992200
_cell_length_b   3.89960400
_cell_length_c   13.88942687
_cell_angle_alpha   81.93014647
_cell_angle_beta   90.00000000
_cell_angle_gamma   90.00000000
_symmetry_Int_Tables_number   65
_chemical_formula_structural   Ba2Y0.8Ga0.2Cu4O8
_chemical_formula_sum   'Ba2 Y0.8 Ga0.2 Cu4 O8'
_cell_volume   208.60454109
_cell_formula_units_Z   1
loop_
 _symmetry_equiv_pos_site_id
 _symmetry_equiv_pos_as_xyz
  1  'x, y, z'
  2  '-x, -y, -z'
  3  'x, -y, -z'
  4  '-x, y, z'
  5  '-x, y+z, -z'
  6  'x, -y-z, z'
  7  '-x, -y-z, z'
  8  'x, y+z, -z'
loop_
 _atom_site_type_symbol
 _atom_site_label
 _atom_site_symmetry_multiplicity
 _atom_site_fract_x
 _atom_site_fract_y
 _atom_site_fract_z
 _atom_site_occupancy
  Ba  Ba0  2  0.50000000  0.36427000  0.27146000  1.0
  Y  Y1  1  0.50000000  0.50000000  0.00000000  0.8
  Ga  Ga2  1  0.50000000  0.50000000  0.00000000  0.2
  Cu  Cu3  2  0.00000000  0.06155000  0.87690000  1.0
  Cu  Cu4  2  0.00000000  0.21265200  0.57469600  1.0
  O  O5  2  0.00000000  0.14540900  0.70918200  1.0
  O  O6  2  0.00000000  0.28151900  0.43696200  1.0
  O  O7  2  0.00000000  0.44790600  0.10418800  1.0
  O  O8  2  0.50000000  0.05227800  0.89544400  1.0
