# generated using pymatgen
data_Ba2Nd2Ti1.9Cu2.1O11
_symmetry_space_group_name_H-M   P4/mmm
_cell_length_a   3.93789300
_cell_length_b   3.93789300
_cell_length_c   16.03637000
_cell_angle_alpha   90.00000000
_cell_angle_beta   90.00000000
_cell_angle_gamma   90.00000000
_symmetry_Int_Tables_number   123
_chemical_formula_structural   Ba2Nd2Ti1.9Cu2.1O11
_chemical_formula_sum   'Ba2 Nd2 Ti1.9 Cu2.1 O11'
_cell_volume   248.67601011
_cell_formula_units_Z   1
loop_
 _symmetry_equiv_pos_site_id
 _symmetry_equiv_pos_as_xyz
  1  'x, y, z'
  2  '-x, -y, -z'
  3  '-y, x, z'
  4  'y, -x, -z'
  5  '-x, -y, z'
  6  'x, y, -z'
  7  'y, -x, z'
  8  '-y, x, -z'
  9  'x, -y, -z'
  10  '-x, y, z'
  11  '-y, -x, -z'
  12  'y, x, z'
  13  '-x, y, -z'
  14  'x, -y, z'
  15  'y, x, -z'
  16  '-y, -x, z'
loop_
 _atom_site_type_symbol
 _atom_site_label
 _atom_site_symmetry_multiplicity
 _atom_site_fract_x
 _atom_site_fract_y
 _atom_site_fract_z
 _atom_site_occupancy
  Ba  Ba0  2  0.50000000  0.50000000  0.23374700  1.0
  Nd  Nd1  1  0.50000000  0.50000000  0.00000000  1.0
  Nd  Nd2  1  0.50000000  0.50000000  0.50000000  1.0
  Ti  Ti3  2  0.00000000  0.00000000  0.37436900  0.95
  Cu  Cu4  2  0.00000000  0.00000000  0.37436900  0.05
  Cu  Cu5  2  0.00000000  0.00000000  0.10650200  1.0
  O  O6  4  0.00000000  0.50000000  0.09565300  1.0
  O  O7  4  0.00000000  0.50000000  0.38745200  1.0
  O  O8  2  0.00000000  0.00000000  0.25818800  1.0
  O  O9  1  0.00000000  0.00000000  0.50000000  1.0
