# generated using pymatgen
data_Ba2Yb(CuO2)4
_symmetry_space_group_name_H-M   Cmmm
_cell_length_a   3.83237000
_cell_length_b   3.86422700
_cell_length_c   14.07800749
_cell_angle_alpha   90.00000000
_cell_angle_beta   97.82292326
_cell_angle_gamma   90.00000000
_symmetry_Int_Tables_number   65
_chemical_formula_structural   Ba2Yb(CuO2)4
_chemical_formula_sum   'Ba2 Yb1 Cu4 O8'
_cell_volume   206.54303381
_cell_formula_units_Z   1
loop_
 _symmetry_equiv_pos_site_id
 _symmetry_equiv_pos_as_xyz
  1  'x, y, z'
  2  '-x, -y, -z'
  3  '-x, y, -z'
  4  'x, -y, z'
  5  'x-z, -y, -z'
  6  '-x+z, y, z'
  7  '-x+z, -y, z'
  8  'x-z, y, -z'
loop_
 _atom_site_type_symbol
 _atom_site_label
 _atom_site_symmetry_multiplicity
 _atom_site_fract_x
 _atom_site_fract_y
 _atom_site_fract_z
 _atom_site_occupancy
  Ba  Ba0  2  0.36958300  0.50000000  0.73916600  1.0
  Yb  Yb1  1  0.50000000  0.50000000  0.00000000  1.0
  Cu  Cu2  2  0.05722200  0.00000000  0.11444400  1.0
  Cu  Cu3  2  0.21219500  0.00000000  0.42439000  1.0
  O  O4  2  0.05354700  0.50000000  0.10709400  1.0
  O  O5  2  0.14673500  0.00000000  0.29347000  1.0
  O  O6  2  0.27994700  0.00000000  0.55989400  1.0
  O  O7  2  0.44705300  0.00000000  0.89410600  1.0
