# generated using pymatgen
data_Ba1.96629213Sm0.98314607Co0.98314607Cu1.96629213O7
_symmetry_space_group_name_H-M   Pmmm
_cell_length_a   3.90166000
_cell_length_b   3.93752200
_cell_length_c   11.89477200
_cell_angle_alpha   90.00000000
_cell_angle_beta   90.00000000
_cell_angle_gamma   90.00000000
_symmetry_Int_Tables_number   47
_chemical_formula_structural
Ba1.96629213Sm0.98314607Co0.98314607Cu1.96629213O7
_chemical_formula_sum
'Ba1.96629213 Sm0.98314607 Co0.98314607 Cu1.96629213 O7'
_cell_volume   182.73786073
_cell_formula_units_Z   1
loop_
 _symmetry_equiv_pos_site_id
 _symmetry_equiv_pos_as_xyz
  1  'x, y, z'
  2  '-x, -y, -z'
  3  '-x, -y, z'
  4  'x, y, -z'
  5  'x, -y, -z'
  6  '-x, y, z'
  7  '-x, y, -z'
  8  'x, -y, z'
loop_
 _atom_site_type_symbol
 _atom_site_label
 _atom_site_symmetry_multiplicity
 _atom_site_fract_x
 _atom_site_fract_y
 _atom_site_fract_z
 _atom_site_occupancy
  Ba  Ba0  2  0.50000000  0.50000000  0.18436400  0.9831460674
  Sm  Sm1  1  0.50000000  0.50000000  0.50000000  0.9831460674
  Co  Co2  1  0.00000000  0.00000000  0.00000000  0.9831460674
  Cu  Cu3  2  0.00000000  0.00000000  0.35771100  0.9831460674
  O  O4  2  0.00000000  0.00000000  0.15161100  1.0
  O  O5  2  0.00000000  0.50000000  0.37398100  1.0
  O  O6  2  0.50000000  0.00000000  0.37383100  1.0
  O  O7  1  0.00000000  0.50000000  0.00000000  1.0
