# generated using pymatgen
data_Ba2Pr0.03Er0.97Cu3O7
_symmetry_space_group_name_H-M   Pmmm
_cell_length_a   3.83476200
_cell_length_b   3.93312500
_cell_length_c   11.78876900
_cell_angle_alpha   90.00000000
_cell_angle_beta   90.00000000
_cell_angle_gamma   90.00000000
_symmetry_Int_Tables_number   47
_chemical_formula_structural   Ba2Pr0.03Er0.97Cu3O7
_chemical_formula_sum   'Ba2 Pr0.03 Er0.97 Cu3 O7'
_cell_volume   177.80526718
_cell_formula_units_Z   1
loop_
 _symmetry_equiv_pos_site_id
 _symmetry_equiv_pos_as_xyz
  1  'x, y, z'
  2  '-x, -y, -z'
  3  '-x, -y, z'
  4  'x, y, -z'
  5  'x, -y, -z'
  6  '-x, y, z'
  7  '-x, y, -z'
  8  'x, -y, z'
loop_
 _atom_site_type_symbol
 _atom_site_label
 _atom_site_symmetry_multiplicity
 _atom_site_fract_x
 _atom_site_fract_y
 _atom_site_fract_z
 _atom_site_occupancy
  Ba  Ba0  2  0.00000000  0.50000000  0.31823300  1.0
  Er  Er1  1  0.00000000  0.50000000  0.00000000  0.97
  Pr  Pr2  1  0.00000000  0.50000000  0.00000000  0.03
  Cu  Cu3  2  0.50000000  0.00000000  0.14435600  1.0
  Cu  Cu4  1  0.50000000  0.00000000  0.50000000  1.0
  O  O5  2  0.00000000  0.00000000  0.11797400  1.0
  O  O6  2  0.50000000  0.00000000  0.33968400  1.0
  O  O7  2  0.50000000  0.50000000  0.12012100  1.0
  O  O8  1  0.50000000  0.50000000  0.50000000  1.0
