# generated using pymatgen
data_Ba1.89445196La0.94722598Co0.94722598Cu1.89445196O7
_symmetry_space_group_name_H-M   Pmmm
_cell_length_a   3.93280900
_cell_length_b   3.96142800
_cell_length_c   12.00692100
_cell_angle_alpha   90.00000000
_cell_angle_beta   90.00000000
_cell_angle_gamma   90.00000000
_symmetry_Int_Tables_number   47
_chemical_formula_structural
Ba1.89445196La0.94722598Co0.94722598Cu1.89445196O7
_chemical_formula_sum
'Ba1.89445196 La0.94722598 Co0.94722598 Cu1.89445196 O7'
_cell_volume   187.06230229
_cell_formula_units_Z   1
loop_
 _symmetry_equiv_pos_site_id
 _symmetry_equiv_pos_as_xyz
  1  'x, y, z'
  2  '-x, -y, -z'
  3  '-x, -y, z'
  4  'x, y, -z'
  5  'x, -y, -z'
  6  '-x, y, z'
  7  '-x, y, -z'
  8  'x, -y, z'
loop_
 _atom_site_type_symbol
 _atom_site_label
 _atom_site_symmetry_multiplicity
 _atom_site_fract_x
 _atom_site_fract_y
 _atom_site_fract_z
 _atom_site_occupancy
  Ba  Ba0  2  0.50000000  0.50000000  0.18327400  0.94722598105
  La  La1  1  0.50000000  0.50000000  0.50000000  0.9472259811
  Co  Co2  1  0.00000000  0.00000000  0.00000000  0.9472259811
  Cu  Cu3  2  0.00000000  0.00000000  0.35366800  0.94722598105
  O  O4  2  0.00000000  0.00000000  0.15014600  1.0
  O  O5  2  0.00000000  0.50000000  0.36945300  1.0
  O  O6  2  0.50000000  0.00000000  0.36852400  1.0
  O  O7  1  0.00000000  0.50000000  0.00000000  1.0
