# generated using pymatgen
data_Ba2NbCu2Pb2ClO8
_symmetry_space_group_name_H-M   Amm2
_cell_length_a   4.01077821
_cell_length_b   4.01077821
_cell_length_c   15.94887300
_cell_angle_alpha   90.00000000
_cell_angle_beta   90.00000000
_cell_angle_gamma   89.90539084
_symmetry_Int_Tables_number   38
_chemical_formula_structural   Ba2NbCu2Pb2ClO8
_chemical_formula_sum   'Ba2 Nb1 Cu2 Pb2 Cl1 O8'
_cell_volume   256.55867343
_cell_formula_units_Z   1
loop_
 _symmetry_equiv_pos_site_id
 _symmetry_equiv_pos_as_xyz
  1  'x, y, z'
  2  '-y, -x, -z'
  3  'x, y, -z'
  4  '-y, -x, z'
loop_
 _atom_site_type_symbol
 _atom_site_label
 _atom_site_symmetry_multiplicity
 _atom_site_fract_x
 _atom_site_fract_y
 _atom_site_fract_z
 _atom_site_occupancy
  Ba  Ba0  2  0.49918400  0.50081600  0.65094900  1.0
  Nb  Nb1  1  0.01247700  0.98752300  0.50000000  1.0
  Cu  Cu2  2  0.00005500  0.99994500  0.22214300  1.0
  Pb  Pb3  2  0.50010100  0.49989900  0.11903500  1.0
  Cl  Cl4  1  0.00023000  0.99977000  0.00000000  1.0
  O  O5  4  0.00065300  0.49979300  0.21104300  1.0
  O  O6  2  0.00655200  0.99344800  0.37472900  1.0
  O  O7  2  0.04536200  0.47857100  0.50000000  1.0
