# generated using pymatgen
data_Ba10Cu5Hg5O21
_symmetry_space_group_name_H-M   P-1
_cell_length_a   8.66748000
_cell_length_b   8.67736230
_cell_length_c   10.48068658
_cell_angle_alpha   99.50530534
_cell_angle_beta   109.29105829
_cell_angle_gamma   90.05706890
_symmetry_Int_Tables_number   2
_chemical_formula_structural   Ba10Cu5Hg5O21
_chemical_formula_sum   'Ba10 Cu5 Hg5 O21'
_cell_volume   732.47989737
_cell_formula_units_Z   1
loop_
 _symmetry_equiv_pos_site_id
 _symmetry_equiv_pos_as_xyz
  1  'x, y, z'
  2  '-x, -y, -z'
loop_
 _atom_site_type_symbol
 _atom_site_label
 _atom_site_symmetry_multiplicity
 _atom_site_fract_x
 _atom_site_fract_y
 _atom_site_fract_z
 _atom_site_occupancy
  Ba  Ba0  2  0.01901700  0.75859600  0.29556400  1.0
  Ba  Ba1  2  0.18392000  0.84112600  0.70433700  1.0
  Ba  Ba2  2  0.21836800  0.36082900  0.29687700  1.0
  Ba  Ba3  2  0.38826500  0.44467100  0.72197300  1.0
  Ba  Ba4  2  0.41939200  0.95880600  0.29571100  1.0
  Cu  Cu5  2  0.20160400  0.10334800  0.50170900  1.0
  Cu  Cu6  2  0.40206800  0.69553800  0.50023000  1.0
  Cu  Cu7  1  0.00000000  0.50000000  0.50000000  1.0
  Hg  Hg8  2  0.21082000  0.59648800  0.99996600  1.0
  Hg  Hg9  2  0.40322200  0.21107700  0.00000700  1.0
  Hg  Hg10  1  0.00000000  0.00000000  0.00000000  1.0
  O  O11  2  0.08239300  0.04162100  0.20603100  1.0
  O  O12  2  0.09773200  0.29778600  0.49921200  1.0
  O  O13  2  0.11118400  0.56040600  0.79053300  1.0
  O  O14  2  0.19548700  0.60338700  0.49924000  1.0
  O  O15  2  0.27903600  0.64363200  0.20945100  1.0
  O  O16  2  0.29905600  0.90102400  0.49957400  1.0
  O  O17  2  0.31394700  0.15352300  0.79053400  1.0
  O  O18  2  0.40267600  0.19613300  0.49906600  1.0
  O  O19  2  0.48131000  0.23744300  0.20955000  1.0
  O  O20  1  0.00000000  0.00000000  0.50000000  1.0
  O  O21  1  0.50000000  0.50000000  0.00000000  1.0
  O  O22  1  0.50000000  0.50000000  0.50000000  1.0
