# generated using pymatgen
data_Ba2Ca1Tl2Fe0.02Cu1.98O8
_symmetry_space_group_name_H-M   I4/mmm
_cell_length_a   3.95020400
_cell_length_b   3.95020400
_cell_length_c   15.57564464
_cell_angle_alpha   97.28512431
_cell_angle_beta   97.28512431
_cell_angle_gamma   90.00000000
_symmetry_Int_Tables_number   139
_chemical_formula_structural   Ba2Ca1Tl2Fe0.02Cu1.98O8
_chemical_formula_sum   'Ba2 Ca1 Tl2 Fe0.02 Cu1.98 O8'
_cell_volume   239.10400288
_cell_formula_units_Z   1
loop_
 _symmetry_equiv_pos_site_id
 _symmetry_equiv_pos_as_xyz
  1  'x, y, z'
  2  '-x, -y, -z'
  3  '-y+z, x, z'
  4  'y-z, -x, -z'
  5  '-x+z, -y+z, z'
  6  'x-z, y-z, -z'
  7  'y, -x+z, z'
  8  '-y, x-z, -z'
  9  'x-z, -y, -z'
  10  '-x+z, y, z'
  11  '-y, -x, -z'
  12  'y, x, z'
  13  '-x, y-z, -z'
  14  'x, -y+z, z'
  15  'y-z, x-z, -z'
  16  '-y+z, -x+z, z'
loop_
 _atom_site_type_symbol
 _atom_site_label
 _atom_site_symmetry_multiplicity
 _atom_site_fract_x
 _atom_site_fract_y
 _atom_site_fract_z
 _atom_site_occupancy
  Ba  Ba0  2  0.11526400  0.11526400  0.23052800  1.0
  Ca  Ca1  1  0.00000000  0.00000000  0.00000000  1.0
  Tl  Tl2  2  0.28702600  0.28702600  0.57405200  1.0
  Cu  Cu3  2  0.44973900  0.44973900  0.89947800  0.99
  Fe  Fe4  2  0.44973900  0.44973900  0.89947800  0.01
  O  O5  4  0.05150200  0.55150200  0.10300400  1.0
  O  O6  2  0.25000000  0.75000000  0.50000000  1.0
  O  O7  2  0.35592100  0.35592100  0.71184200  1.0
