# generated using pymatgen
data_Ba4Pr1.6Ho0.4Cu6O14
_symmetry_space_group_name_H-M   Pmmm
_cell_length_a   3.86870500
_cell_length_b   3.94435800
_cell_length_c   23.77481600
_cell_angle_alpha   90.00000000
_cell_angle_beta   90.00000000
_cell_angle_gamma   90.00000000
_symmetry_Int_Tables_number   47
_chemical_formula_structural   Ba4Pr1.6Ho0.4Cu6O14
_chemical_formula_sum   'Ba4 Pr1.6 Ho0.4 Cu6 O14'
_cell_volume   362.79317219
_cell_formula_units_Z   1
loop_
 _symmetry_equiv_pos_site_id
 _symmetry_equiv_pos_as_xyz
  1  'x, y, z'
  2  '-x, -y, -z'
  3  '-x, -y, z'
  4  'x, y, -z'
  5  'x, -y, -z'
  6  '-x, y, z'
  7  '-x, y, -z'
  8  'x, -y, z'
loop_
 _atom_site_type_symbol
 _atom_site_label
 _atom_site_symmetry_multiplicity
 _atom_site_fract_x
 _atom_site_fract_y
 _atom_site_fract_z
 _atom_site_occupancy
  Ba  Ba0  2  0.50000000  0.50000000  0.16029700  1.0
  Ba  Ba1  2  0.50000000  0.50000000  0.34052400  1.0
  Pr  Pr2  1  0.50000000  0.50000000  0.00000000  1.0
  Ho  Ho3  1  0.50000000  0.50000000  0.50000000  0.4
  Pr  Pr4  1  0.50000000  0.50000000  0.50000000  0.6
  Cu  Cu5  2  0.00000000  0.00000000  0.07677100  1.0
  Cu  Cu6  2  0.00000000  0.00000000  0.25019600  1.0
  Cu  Cu7  2  0.00000000  0.00000000  0.42644900  1.0
  O  O8  2  0.00000000  0.00000000  0.17108200  1.0
  O  O9  2  0.00000000  0.00000000  0.32974400  1.0
  O  O10  2  0.00000000  0.50000000  0.06535100  1.0
  O  O11  2  0.00000000  0.50000000  0.25047500  1.0
  O  O12  2  0.00000000  0.50000000  0.44021000  1.0
  O  O13  2  0.50000000  0.00000000  0.06480400  1.0
  O  O14  2  0.50000000  0.00000000  0.44064600  1.0
