# generated using pymatgen
data_Ba1.95530726Gd0.97765363Co0.97765363Cu1.95530726O7
_symmetry_space_group_name_H-M   Pmmm
_cell_length_a   3.88113500
_cell_length_b   3.91982800
_cell_length_c   11.84470300
_cell_angle_alpha   90.00000000
_cell_angle_beta   90.00000000
_cell_angle_gamma   90.00000000
_symmetry_Int_Tables_number   47
_chemical_formula_structural
Ba1.95530726Gd0.97765363Co0.97765363Cu1.95530726O7
_chemical_formula_sum
'Ba1.95530726 Gd0.97765363 Co0.97765363 Cu1.95530726 O7'
_cell_volume   180.19798721
_cell_formula_units_Z   1
loop_
 _symmetry_equiv_pos_site_id
 _symmetry_equiv_pos_as_xyz
  1  'x, y, z'
  2  '-x, -y, -z'
  3  '-x, -y, z'
  4  'x, y, -z'
  5  'x, -y, -z'
  6  '-x, y, z'
  7  '-x, y, -z'
  8  'x, -y, z'
loop_
 _atom_site_type_symbol
 _atom_site_label
 _atom_site_symmetry_multiplicity
 _atom_site_fract_x
 _atom_site_fract_y
 _atom_site_fract_z
 _atom_site_occupancy
  Ba  Ba0  2  0.50000000  0.50000000  0.18466100  0.9776536313
  Gd  Gd1  1  0.50000000  0.50000000  0.50000000  0.9776536313
  Co  Co2  1  0.00000000  0.00000000  0.00000000  0.9776536313
  Cu  Cu3  2  0.00000000  0.00000000  0.35849000  0.9776536313
  O  O4  2  0.00000000  0.00000000  0.15178800  1.0
  O  O5  2  0.00000000  0.50000000  0.37597000  1.0
  O  O6  2  0.50000000  0.00000000  0.37579400  1.0
  O  O7  1  0.00000000  0.50000000  0.00000000  1.0
