# generated using pymatgen
data_Ba1.96753566Cu0.98376783Hg0.98376783O4
_symmetry_space_group_name_H-M   P4/mmm
_cell_length_a   3.93371400
_cell_length_b   3.93371400
_cell_length_c   9.82760200
_cell_angle_alpha   90.00000000
_cell_angle_beta   90.00000000
_cell_angle_gamma   90.00000000
_symmetry_Int_Tables_number   123
_chemical_formula_structural   Ba1.96753566Cu0.98376783Hg0.98376783O4
_chemical_formula_sum   'Ba1.96753566 Cu0.98376783 Hg0.98376783 O4'
_cell_volume   152.07335344
_cell_formula_units_Z   1
loop_
 _symmetry_equiv_pos_site_id
 _symmetry_equiv_pos_as_xyz
  1  'x, y, z'
  2  '-x, -y, -z'
  3  '-y, x, z'
  4  'y, -x, -z'
  5  '-x, -y, z'
  6  'x, y, -z'
  7  'y, -x, z'
  8  '-y, x, -z'
  9  'x, -y, -z'
  10  '-x, y, z'
  11  '-y, -x, -z'
  12  'y, x, z'
  13  '-x, y, -z'
  14  'x, -y, z'
  15  'y, x, -z'
  16  '-y, -x, z'
loop_
 _atom_site_type_symbol
 _atom_site_label
 _atom_site_symmetry_multiplicity
 _atom_site_fract_x
 _atom_site_fract_y
 _atom_site_fract_z
 _atom_site_occupancy
  Ba  Ba0  2  0.50000000  0.50000000  0.30440300  0.9837678308
  Cu  Cu1  1  0.00000000  0.00000000  0.50000000  0.9837678308
  Hg  Hg2  1  0.00000000  0.00000000  0.00000000  0.9837678308
  O  O3  2  0.00000000  0.00000000  0.20502900  1.0
  O  O4  2  0.00000000  0.50000000  0.50000000  1.0
