# generated using pymatgen
data_Ba2LaNb(CuO4)2
_symmetry_space_group_name_H-M   I4/mcm
_cell_length_a   5.66850000
_cell_length_b   5.66850000
_cell_length_c   12.82913280
_cell_angle_alpha   102.76324869
_cell_angle_beta   102.76324869
_cell_angle_gamma   89.99999999
_symmetry_Int_Tables_number   140
_chemical_formula_structural   Ba2LaNb(CuO4)2
_chemical_formula_sum   'Ba4 La2 Nb2 Cu4 O16'
_cell_volume   391.58838263
_cell_formula_units_Z   2
loop_
 _symmetry_equiv_pos_site_id
 _symmetry_equiv_pos_as_xyz
  1  'x, y, z'
  2  '-x, -y, -z'
  3  '-y+z, x, z'
  4  'y-z, -x, -z'
  5  '-x+z, -y+z, z'
  6  'x-z, y-z, -z'
  7  'y, -x+z, z'
  8  '-y, x-z, -z'
  9  'x-z+1/2, -y+1/2, -z'
  10  '-x+z+1/2, y+1/2, z'
  11  '-y+1/2, -x+1/2, -z'
  12  'y+1/2, x+1/2, z'
  13  '-x+1/2, y-z+1/2, -z'
  14  'x+1/2, -y+z+1/2, z'
  15  'y-z+1/2, x-z+1/2, -z'
  16  '-y+z+1/2, -x+z+1/2, z'
loop_
 _atom_site_type_symbol
 _atom_site_label
 _atom_site_symmetry_multiplicity
 _atom_site_fract_x
 _atom_site_fract_y
 _atom_site_fract_z
 _atom_site_occupancy
  Ba  Ba0  4  0.09769300  0.59769300  0.19538600  1.0
  La  La1  2  0.25000000  0.75000000  0.50000000  1.0
  Nb  Nb2  2  0.00000000  0.00000000  0.00000000  1.0
  Cu  Cu3  4  0.17799200  0.17799200  0.35598400  1.0
  O  O4  8  0.06340000  0.06522500  0.62862500  1.0
  O  O5  4  0.08167600  0.08167600  0.16335200  1.0
  O  O6  4  0.22193600  0.72193600  0.00000000  1.0
