# generated using pymatgen
data_Ba1.99430199Pr0.997151Co0.997151Cu1.99430199O7
_symmetry_space_group_name_H-M   Pmmm
_cell_length_a   3.92436700
_cell_length_b   3.94586200
_cell_length_c   11.95319000
_cell_angle_alpha   90.00000000
_cell_angle_beta   90.00000000
_cell_angle_gamma   90.00000000
_symmetry_Int_Tables_number   47
_chemical_formula_structural
Ba1.99430199Pr0.997151Co0.997151Cu1.99430199O7
_chemical_formula_sum
'Ba1.99430199 Pr0.997151 Co0.997151 Cu1.99430199 O7'
_cell_volume   185.09527409
_cell_formula_units_Z   1
loop_
 _symmetry_equiv_pos_site_id
 _symmetry_equiv_pos_as_xyz
  1  'x, y, z'
  2  '-x, -y, -z'
  3  '-x, -y, z'
  4  'x, y, -z'
  5  'x, -y, -z'
  6  '-x, y, z'
  7  '-x, y, -z'
  8  'x, -y, z'
loop_
 _atom_site_type_symbol
 _atom_site_label
 _atom_site_symmetry_multiplicity
 _atom_site_fract_x
 _atom_site_fract_y
 _atom_site_fract_z
 _atom_site_occupancy
  Ba  Ba0  2  0.50000000  0.50000000  0.18428500  0.99715099715
  Pr  Pr1  1  0.50000000  0.50000000  0.50000000  0.9971509972
  Co  Co2  1  0.00000000  0.00000000  0.00000000  0.9971509972
  Cu  Cu3  2  0.00000000  0.00000000  0.35590500  0.99715099715
  O  O4  2  0.00000000  0.00000000  0.14995900  1.0
  O  O5  2  0.00000000  0.50000000  0.37053200  1.0
  O  O6  2  0.50000000  0.00000000  0.36989100  1.0
  O  O7  1  0.00000000  0.50000000  0.00000000  1.0
