# generated using pymatgen
data_Ba2La0.8Y0.2Cu3O7
_symmetry_space_group_name_H-M   P4mm
_cell_length_a   3.99294500
_cell_length_b   3.99294500
_cell_length_c   11.59442000
_cell_angle_alpha   90.00000000
_cell_angle_beta   90.00000000
_cell_angle_gamma   90.00000000
_symmetry_Int_Tables_number   99
_chemical_formula_structural   Ba2La0.8Y0.2Cu3O7
_chemical_formula_sum   'Ba2 La0.8 Y0.2 Cu3 O7'
_cell_volume   184.85690802
_cell_formula_units_Z   1
loop_
 _symmetry_equiv_pos_site_id
 _symmetry_equiv_pos_as_xyz
  1  'x, y, z'
  2  '-y, x, z'
  3  '-x, -y, z'
  4  'y, -x, z'
  5  '-x, y, z'
  6  'y, x, z'
  7  'x, -y, z'
  8  '-y, -x, z'
loop_
 _atom_site_type_symbol
 _atom_site_label
 _atom_site_symmetry_multiplicity
 _atom_site_fract_x
 _atom_site_fract_y
 _atom_site_fract_z
 _atom_site_occupancy
  Ba  Ba0  1  0.50000000  0.50000000  0.17045500  1.0
  Ba  Ba1  1  0.50000000  0.50000000  0.83207200  1.0
  La  La2  1  0.50000000  0.50000000  0.49772900  0.8
  Y  Y3  1  0.50000000  0.50000000  0.49772900  0.2
  Cu  Cu4  1  0.00000000  0.00000000  0.35408200  1.0
  Cu  Cu5  1  0.00000000  0.00000000  0.65470200  1.0
  Cu  Cu6  1  0.00000000  0.00000000  0.99279900  1.0
  O  O7  2  0.00000000  0.50000000  0.01654100  1.0
  O  O8  2  0.00000000  0.50000000  0.35782500  1.0
  O  O9  2  0.00000000  0.50000000  0.62690200  1.0
  O  O10  1  0.00000000  0.00000000  0.82362600  1.0
