# generated using pymatgen
data_Ba2YCu3SO6
_symmetry_space_group_name_H-M   Pmmm
_cell_length_a   3.79749200
_cell_length_b   4.17163300
_cell_length_c   12.11787200
_cell_angle_alpha   90.00000000
_cell_angle_beta   90.00000000
_cell_angle_gamma   90.00000000
_symmetry_Int_Tables_number   47
_chemical_formula_structural   Ba2YCu3SO6
_chemical_formula_sum   'Ba2 Y1 Cu3 S1 O6'
_cell_volume   191.96821326
_cell_formula_units_Z   1
loop_
 _symmetry_equiv_pos_site_id
 _symmetry_equiv_pos_as_xyz
  1  'x, y, z'
  2  '-x, -y, -z'
  3  '-x, -y, z'
  4  'x, y, -z'
  5  'x, -y, -z'
  6  '-x, y, z'
  7  '-x, y, -z'
  8  'x, -y, z'
loop_
 _atom_site_type_symbol
 _atom_site_label
 _atom_site_symmetry_multiplicity
 _atom_site_fract_x
 _atom_site_fract_y
 _atom_site_fract_z
 _atom_site_occupancy
  Ba  Ba0  2  0.50000000  0.50000000  0.20152900  1.0
  Y  Y1  1  0.50000000  0.50000000  0.50000000  1.0
  Cu  Cu2  2  0.00000000  0.00000000  0.35820300  1.0
  Cu  Cu3  1  0.00000000  0.00000000  0.00000000  1.0
  S  S4  1  0.00000000  0.50000000  0.00000000  1.0
  O  O5  2  0.00000000  0.00000000  0.15977200  1.0
  O  O6  2  0.00000000  0.50000000  0.37957500  1.0
  O  O7  2  0.50000000  0.00000000  0.38304600  1.0
