# generated using pymatgen
data_Ba1.94444444Y0.97222222Co0.97222222Cu1.94444444O7
_symmetry_space_group_name_H-M   Pmmm
_cell_length_a   3.86629601
_cell_length_b   3.91930101
_cell_length_c   11.81992400
_cell_angle_alpha   90.00012149
_cell_angle_beta   89.99999516
_cell_angle_gamma   89.99256716
_symmetry_Int_Tables_number   47
_chemical_formula_structural
Ba1.94444444Y0.97222222Co0.97222222Cu1.94444444O7
_chemical_formula_sum
'Ba1.94444444 Y0.97222222 Co0.97222222 Cu1.94444444 O7'
_cell_volume   179.10940912
_cell_formula_units_Z   1
loop_
 _symmetry_equiv_pos_site_id
 _symmetry_equiv_pos_as_xyz
  1  'x, y, z'
  2  '-x, -y, -z'
  3  '-x, -y, z'
  4  'x, y, -z'
  5  'x, -y, -z'
  6  '-x, y, z'
  7  '-x, y, -z'
  8  'x, -y, z'
loop_
 _atom_site_type_symbol
 _atom_site_label
 _atom_site_symmetry_multiplicity
 _atom_site_fract_x
 _atom_site_fract_y
 _atom_site_fract_z
 _atom_site_occupancy
  Ba  Ba0  2  0.50000000  0.49999700  0.18383600  0.9722222222
  Y  Y1  1  0.50000100  0.50000100  0.50001000  0.9722222222
  Co  Co2  1  0.99999900  0.00000100  0.00000600  0.9722222222
  Cu  Cu3  2  0.00000100  0.00000200  0.64021300  0.9722222222
  O  O4  2  0.00000000  0.49999900  0.37796700  1.0
  O  O5  2  0.00000100  0.99999800  0.15265300  1.0
  O  O6  2  0.49999900  0.99999900  0.37776300  1.0
  O  O7  1  0.00000000  0.50000100  0.00000000  1.0
