# generated using pymatgen
data_Ba4Pr1.6Gd0.4Cu6O14
_symmetry_space_group_name_H-M   Pmmm
_cell_length_a   3.87425218
_cell_length_b   3.94743505
_cell_length_c   23.78525786
_cell_angle_alpha   90.00000000
_cell_angle_beta   90.00000000
_cell_angle_gamma   90.00000000
_symmetry_Int_Tables_number   47
_chemical_formula_structural   Ba4Pr1.6Gd0.4Cu6O14
_chemical_formula_sum   'Ba4 Pr1.6 Gd0.4 Cu6 O14'
_cell_volume   363.75648374
_cell_formula_units_Z   1
loop_
 _symmetry_equiv_pos_site_id
 _symmetry_equiv_pos_as_xyz
  1  'x, y, z'
  2  '-x, -y, -z+1/2'
  3  '-x, -y, z'
  4  'x, y, -z+1/2'
  5  'x, -y, -z+1/2'
  6  '-x, y, z'
  7  '-x, y, -z+1/2'
  8  'x, -y, z'
loop_
 _atom_site_type_symbol
 _atom_site_label
 _atom_site_symmetry_multiplicity
 _atom_site_fract_x
 _atom_site_fract_y
 _atom_site_fract_z
 _atom_site_occupancy
  Ba  Ba0  2  0.50000000  0.50000000  0.09008380  1.0
  Ba  Ba1  2  0.50000000  0.50000000  0.58955712  1.0
  Pr  Pr2  1  0.50000000  0.50000000  0.75000000  1.0
  Gd  Gd3  1  0.50000000  0.50000000  0.25000000  0.4
  Pr  Pr4  1  0.50000000  0.50000000  0.25000000  0.6
  Cu  Cu5  2  0.00000000  0.00000000  0.00017997  1.0
  Cu  Cu6  2  0.00000000  0.00000000  0.17497736  1.0
  Cu  Cu7  2  0.00000000  0.00000000  0.67253052  1.0
  O  O8  2  0.00000000  0.00000000  0.07932692  1.0
  O  O9  2  0.00000000  0.00000000  0.57872428  1.0
  O  O10  2  0.00000000  0.50000000  0.00034518  1.0
  O  O11  2  0.00000000  0.50000000  0.18818670  1.0
  O  O12  2  0.00000000  0.50000000  0.68478637  1.0
  O  O13  2  0.50000000  0.00000000  0.18866096  1.0
  O  O14  2  0.50000000  0.00000000  0.68527876  1.0
