# generated using pymatgen
data_Ba3(Ge4Ir)4
_symmetry_space_group_name_H-M   I4/mmm
_cell_length_a   6.59700800
_cell_length_b   6.59700800
_cell_length_c   12.27346793
_cell_angle_alpha   105.58994412
_cell_angle_beta   105.58994413
_cell_angle_gamma   89.99999999
_symmetry_Int_Tables_number   139
_chemical_formula_structural   Ba3(Ge4Ir)4
_chemical_formula_sum   'Ba3 Ge16 Ir4'
_cell_volume   494.06376913
_cell_formula_units_Z   1
loop_
 _symmetry_equiv_pos_site_id
 _symmetry_equiv_pos_as_xyz
  1  'x, y, z'
  2  '-x, -y, -z'
  3  '-y+z, x, z'
  4  'y-z, -x, -z'
  5  '-x+z, -y+z, z'
  6  'x-z, y-z, -z'
  7  'y, -x+z, z'
  8  '-y, x-z, -z'
  9  'x-z, -y, -z'
  10  '-x+z, y, z'
  11  '-y, -x, -z'
  12  'y, x, z'
  13  '-x, y-z, -z'
  14  'x, -y+z, z'
  15  'y-z, x-z, -z'
  16  '-y+z, -x+z, z'
loop_
 _atom_site_type_symbol
 _atom_site_label
 _atom_site_symmetry_multiplicity
 _atom_site_fract_x
 _atom_site_fract_y
 _atom_site_fract_z
 _atom_site_occupancy
  Ba  Ba0  2  0.25000000  0.75000000  0.50000000  1.0
  Ba  Ba1  1  0.00000000  0.00000000  0.00000000  1.0
  Ge  Ge2  8  0.11544600  0.11544600  0.73974000  1.0
  Ge  Ge3  4  0.22391900  0.50000000  0.00000000  1.0
  Ge  Ge4  2  0.19442600  0.19442600  0.38885200  1.0
  Ge  Ge5  2  0.30758200  0.30758200  0.61516400  1.0
  Ir  Ir6  4  0.08937400  0.58937400  0.17874800  1.0
