# generated using pymatgen
data_Ba1.73913043Ge10
_symmetry_space_group_name_H-M   Imma
_cell_length_a   4.84720800
_cell_length_b   8.53668023
_cell_length_c   8.53668023
_cell_angle_alpha   60.21733501
_cell_angle_beta   73.50660912
_cell_angle_gamma   73.50660911
_symmetry_Int_Tables_number   74
_chemical_formula_structural   Ba1.73913043Ge10
_chemical_formula_sum   'Ba1.73913043 Ge10'
_cell_volume   289.60190433
_cell_formula_units_Z   1
loop_
 _symmetry_equiv_pos_site_id
 _symmetry_equiv_pos_as_xyz
  1  'x, y, z'
  2  '-x, -y, -z'
  3  '-x-y-z, z+1/2, y+1/2'
  4  'x+y+z, -z+1/2, -y+1/2'
  5  'x+y+z, -y, -z'
  6  '-x-y-z, y, z'
  7  '-x, -z+1/2, -y+1/2'
  8  'x, z+1/2, y+1/2'
loop_
 _atom_site_type_symbol
 _atom_site_label
 _atom_site_symmetry_multiplicity
 _atom_site_fract_x
 _atom_site_fract_y
 _atom_site_fract_z
 _atom_site_occupancy
  Ba  Ba0  2  0.03298800  0.71701200  0.21701200  0.8695652174
  Ge  Ge1  4  0.19254600  0.90469800  0.71021000  1.0
  Ge  Ge2  4  0.37912000  0.64499500  0.59676400  1.0
  Ge  Ge3  2  0.29026600  0.45973400  0.95973400  1.0
