# generated using pymatgen
data_Be12Pd0.92307692
_symmetry_space_group_name_H-M   I4/mmm
_cell_length_a   4.18220800
_cell_length_b   5.55176553
_cell_length_c   5.55176553
_cell_angle_alpha   81.84395947
_cell_angle_beta   67.87331924
_cell_angle_gamma   67.87331925
_symmetry_Int_Tables_number   139
_chemical_formula_structural   Be12Pd0.92307692
_chemical_formula_sum   'Be12 Pd0.92307692'
_cell_volume   110.61682771
_cell_formula_units_Z   1
loop_
 _symmetry_equiv_pos_site_id
 _symmetry_equiv_pos_as_xyz
  1  'x, y, z'
  2  '-x, -y, -z'
  3  'x+y, z, -y'
  4  '-x-y, -z, y'
  5  'x+y+z, -y, -z'
  6  '-x-y-z, y, z'
  7  'x+z, -z, y'
  8  '-x-z, z, -y'
  9  '-x, -z, -y'
  10  'x, z, y'
  11  '-x-y, y, -z'
  12  'x+y, -y, z'
  13  '-x-y-z, z, y'
  14  'x+y+z, -z, -y'
  15  '-x-z, -y, z'
  16  'x+z, y, -z'
loop_
 _atom_site_type_symbol
 _atom_site_label
 _atom_site_symmetry_multiplicity
 _atom_site_fract_x
 _atom_site_fract_y
 _atom_site_fract_z
 _atom_site_occupancy
  Be  Be0  4  0.00000000  0.00000000  0.50000000  1.0
  Be  Be1  4  0.00000000  0.34823700  0.65176300  1.0
  Be  Be2  4  0.27447600  0.22552400  0.22552400  1.0
  Pd  Pd3  1  0.00000000  0.00000000  0.00000000  0.9230769231
