# generated using pymatgen
data_Mn0.92307692Be12
_symmetry_space_group_name_H-M   I4/mmm
_cell_length_a   4.09842200
_cell_length_b   5.45889558
_cell_length_c   5.45889558
_cell_angle_alpha   81.89908006
_cell_angle_beta   67.95162392
_cell_angle_gamma   67.95162391
_symmetry_Int_Tables_number   139
_chemical_formula_structural   Mn0.92307692Be12
_chemical_formula_sum   'Mn0.92307692 Be12'
_cell_volume   104.92073123
_cell_formula_units_Z   1
loop_
 _symmetry_equiv_pos_site_id
 _symmetry_equiv_pos_as_xyz
  1  'x, y, z'
  2  '-x, -y, -z'
  3  'x+y, z, -y'
  4  '-x-y, -z, y'
  5  'x+y+z, -y, -z'
  6  '-x-y-z, y, z'
  7  'x+z, -z, y'
  8  '-x-z, z, -y'
  9  '-x-y-z, z, y'
  10  'x+y+z, -z, -y'
  11  '-x-z, -y, z'
  12  'x+z, y, -z'
  13  '-x, -z, -y'
  14  'x, z, y'
  15  '-x-y, y, -z'
  16  'x+y, -y, z'
loop_
 _atom_site_type_symbol
 _atom_site_label
 _atom_site_symmetry_multiplicity
 _atom_site_fract_x
 _atom_site_fract_y
 _atom_site_fract_z
 _atom_site_occupancy
  Mn  Mn0  1  0.00000000  0.00000000  0.00000000  0.9230769231
  Be  Be1  4  0.00000000  0.00000000  0.50000000  1.0
  Be  Be2  4  0.00000000  0.34642600  0.65357400  1.0
  Be  Be3  4  0.29008700  0.20991300  0.20991300  1.0
