# generated using pymatgen
data_Be17Nb2
_symmetry_space_group_name_H-M   R-3m
_cell_length_a   5.56194965
_cell_length_b   5.56194965
_cell_length_c   5.56194934
_cell_angle_alpha   83.13461362
_cell_angle_beta   83.13461362
_cell_angle_gamma   83.13460533
_symmetry_Int_Tables_number   166
_chemical_formula_structural   Be17Nb2
_chemical_formula_sum   'Be17 Nb2'
_cell_volume   168.63233371
_cell_formula_units_Z   1
loop_
 _symmetry_equiv_pos_site_id
 _symmetry_equiv_pos_as_xyz
  1  'x, y, z'
  2  '-x, -y, -z'
  3  'z, x, y'
  4  '-z, -x, -y'
  5  'y, z, x'
  6  '-y, -z, -x'
  7  '-z, -y, -x'
  8  'z, y, x'
  9  '-y, -x, -z'
  10  'y, x, z'
  11  '-x, -z, -y'
  12  'x, z, y'
loop_
 _atom_site_type_symbol
 _atom_site_label
 _atom_site_symmetry_multiplicity
 _atom_site_fract_x
 _atom_site_fract_y
 _atom_site_fract_z
 _atom_site_occupancy
  Be  Be0  6  0.15326700  0.15326700  0.66049100  1.0
  Be  Be1  6  0.20632900  0.79367100  0.50000000  1.0
  Be  Be2  3  0.00000000  0.50000000  0.50000000  1.0
  Be  Be3  2  0.40108200  0.40108200  0.40108200  1.0
  Nb  Nb4  2  0.15888300  0.15888300  0.15888300  1.0
