# generated using pymatgen
data_LiBeH3
_symmetry_space_group_name_H-M   C2
_cell_length_a   3.87900800
_cell_length_b   4.98787059
_cell_length_c   5.12892055
_cell_angle_alpha   99.24317027
_cell_angle_beta   90.00000000
_cell_angle_gamma   112.88259439
_symmetry_Int_Tables_number   5
_chemical_formula_structural   LiBeH3
_chemical_formula_sum   'Li2 Be2 H6'
_cell_volume   90.02470736
_cell_formula_units_Z   2
loop_
 _symmetry_equiv_pos_site_id
 _symmetry_equiv_pos_as_xyz
  1  'x, y, z'
  2  'x-y, -y, -z'
loop_
 _atom_site_type_symbol
 _atom_site_label
 _atom_site_symmetry_multiplicity
 _atom_site_fract_x
 _atom_site_fract_y
 _atom_site_fract_z
 _atom_site_occupancy
  Li  Li0  2  0.19400900  0.24907600  0.36660600  1.0
  Be  Be1  2  0.34720000  0.44752000  0.85136000  1.0
  H  H2  2  0.13620900  0.15613400  0.72534400  1.0
  H  H3  2  0.26351700  0.53314100  0.11714400  1.0
  H  H4  2  0.38324800  0.64659500  0.67194000  1.0
