# generated using pymatgen
data_Li2BeH4
_symmetry_space_group_name_H-M   P1
_cell_length_a   5.13951461
_cell_length_b   6.63200601
_cell_length_c   11.38753788
_cell_angle_alpha   83.46233305
_cell_angle_beta   86.20599094
_cell_angle_gamma   83.38318547
_symmetry_Int_Tables_number   1
_chemical_formula_structural   Li2BeH4
_chemical_formula_sum   'Li12 Be6 H24'
_cell_volume   382.50102675
_cell_formula_units_Z   6
loop_
 _symmetry_equiv_pos_site_id
 _symmetry_equiv_pos_as_xyz
  1  'x, y, z'
loop_
 _atom_site_type_symbol
 _atom_site_label
 _atom_site_symmetry_multiplicity
 _atom_site_fract_x
 _atom_site_fract_y
 _atom_site_fract_z
 _atom_site_occupancy
  Li  Li0  1  0.07065600  0.28980600  0.84581900  1.0
  Li  Li1  1  0.09145500  0.43256900  0.60634800  1.0
  Li  Li2  1  0.11500600  0.27277600  0.15432500  1.0
  Li  Li3  1  0.12336500  0.71787200  0.78084800  1.0
  Li  Li4  1  0.13004400  0.82820000  0.14162000  1.0
  Li  Li5  1  0.31141700  0.05964600  0.57724100  1.0
  Li  Li6  1  0.45588800  0.57394500  0.25270800  1.0
  Li  Li7  1  0.48889100  0.01579500  0.82495100  1.0
  Li  Li8  1  0.61642300  0.57639900  0.81936500  1.0
  Li  Li9  1  0.62760800  0.00785000  0.19334100  1.0
  Li  Li10  1  0.64308800  0.75647700  0.41423500  1.0
  Li  Li11  1  0.75331200  0.23461500  0.39352800  1.0
  Be  Be12  1  0.09357200  0.56125600  0.98678500  1.0
  Be  Be13  1  0.12558400  0.71155000  0.43585000  1.0
  Be  Be14  1  0.21125800  0.98386100  0.32787700  1.0
  Be  Be15  1  0.21465500  0.30850800  0.39267500  1.0
  Be  Be16  1  0.95791100  0.55167500  0.28798000  1.0
  Be  Be17  1  0.96386900  0.94366200  0.95378300  1.0
  H  H18  1  0.02516800  0.24771600  0.49257700  1.0
  H  H19  1  0.23636500  0.97319900  0.95180000  1.0
  H  H20  1  0.29837300  0.19665100  0.71662500  1.0
  H  H21  1  0.30226100  0.51807100  0.89839300  1.0
  H  H22  1  0.32719000  0.77627200  0.49805800  1.0
  H  H23  1  0.43527500  0.29364100  0.46571700  1.0
  H  H24  1  0.44044000  0.20048900  0.06429400  1.0
  H  H25  1  0.44146000  0.81118000  0.74025400  1.0
  H  H26  1  0.44922000  0.31432200  0.07687400  1.0
  H  H27  1  0.45085400  0.66948000  0.07994200  1.0
  H  H28  1  0.46940700  0.44147800  0.66759500  1.0
  H  H29  1  0.47401100  0.55795600  0.65075700  1.0
  H  H30  1  0.54029600  0.75248900  0.09673600  1.0
  H  H31  1  0.65441700  0.91021400  0.59876000  1.0
  H  H32  1  0.69390500  0.99110600  0.55006500  1.0
  H  H33  1  0.71834300  0.49600200  0.34724400  1.0
  H  H34  1  0.83392900  0.06466900  0.85808500  1.0
  H  H35  1  0.83673500  0.73537500  0.22450300  1.0
  H  H36  1  0.86489000  0.98860100  0.06760400  1.0
  H  H37  1  0.90902600  0.72939800  0.93050700  1.0
  H  H38  1  0.92635100  0.65574500  0.52147600  1.0
  H  H39  1  0.93352600  0.51205900  0.74804000  1.0
  H  H40  1  0.94877000  0.38769200  0.00460900  1.0
  H  H41  1  0.97579000  0.90973400  0.39020300  1.0
