# generated using pymatgen
data_Li2BeH4
_symmetry_space_group_name_H-M   P2_1/c
_cell_length_a   6.99734581
_cell_length_b   8.23705000
_cell_length_c   8.29081105
_cell_angle_alpha   90.00000000
_cell_angle_beta   93.64408268
_cell_angle_gamma   90.00000000
_symmetry_Int_Tables_number   14
_chemical_formula_structural   Li2BeH4
_chemical_formula_sum   'Li16 Be8 H32'
_cell_volume   476.89533932
_cell_formula_units_Z   8
loop_
 _symmetry_equiv_pos_site_id
 _symmetry_equiv_pos_as_xyz
  1  'x, y, z'
  2  '-x, -y, -z'
  3  '-x, y+1/2, -z+1/2'
  4  'x, -y+1/2, z+1/2'
loop_
 _atom_site_type_symbol
 _atom_site_label
 _atom_site_symmetry_multiplicity
 _atom_site_fract_x
 _atom_site_fract_y
 _atom_site_fract_z
 _atom_site_occupancy
  Li  Li0  4  0.12020300  0.21447800  0.41913400  1.0
  Li  Li1  4  0.16230200  0.58481700  0.40851900  1.0
  Li  Li2  4  0.31392600  0.57644500  0.05800000  1.0
  Li  Li3  4  0.41561900  0.57070100  0.70830400  1.0
  Be  Be4  4  0.03565500  0.56872300  0.80221400  1.0
  Be  Be5  4  0.48342000  0.20591200  0.06446300  1.0
  H  H6  4  0.00177000  0.21627000  0.61676100  1.0
  H  H7  4  0.02729400  0.59310600  0.62926800  1.0
  H  H8  4  0.09904100  0.55733600  0.17375200  1.0
  H  H9  4  0.21827800  0.00059700  0.35064100  1.0
  H  H10  4  0.32698400  0.12670000  0.97842200  1.0
  H  H11  4  0.35313700  0.70222500  0.53183800  1.0
  H  H12  4  0.44602000  0.12483200  0.59132100  1.0
  H  H13  4  0.45522500  0.62884300  0.28644200  1.0
