# generated using pymatgen
data_LiBeH3
_symmetry_space_group_name_H-M   Pnma
_cell_length_a   4.39489500
_cell_length_b   4.51740900
_cell_length_c   6.27660700
_cell_angle_alpha   90.00000000
_cell_angle_beta   90.00000000
_cell_angle_gamma   90.00000000
_symmetry_Int_Tables_number   62
_chemical_formula_structural   LiBeH3
_chemical_formula_sum   'Li4 Be4 H12'
_cell_volume   124.61285701
_cell_formula_units_Z   4
loop_
 _symmetry_equiv_pos_site_id
 _symmetry_equiv_pos_as_xyz
  1  'x, y, z'
  2  '-x, -y, -z'
  3  'x+1/2, -y+1/2, -z'
  4  '-x+1/2, y+1/2, z'
  5  '-x+1/2, y+1/2, -z+1/2'
  6  'x+1/2, -y+1/2, z+1/2'
  7  '-x, -y, z+1/2'
  8  'x, y, -z+1/2'
loop_
 _atom_site_type_symbol
 _atom_site_label
 _atom_site_symmetry_multiplicity
 _atom_site_fract_x
 _atom_site_fract_y
 _atom_site_fract_z
 _atom_site_occupancy
  Li  Li0  4  0.01000700  0.95050100  0.75000000  1.0
  Be  Be1  4  0.00000000  0.50000000  0.00000000  1.0
  H  H2  8  0.20788700  0.20722500  0.53693000  1.0
  H  H3  4  0.07234100  0.48341900  0.25000000  1.0
