# generated using pymatgen
data_Li2BeH4
_symmetry_space_group_name_H-M   P1
_cell_length_a   4.96007800
_cell_length_b   6.61466023
_cell_length_c   12.35374116
_cell_angle_alpha   81.32061168
_cell_angle_beta   86.85672725
_cell_angle_gamma   89.89443690
_symmetry_Int_Tables_number   1
_chemical_formula_structural   Li2BeH4
_chemical_formula_sum   'Li12 Be6 H24'
_cell_volume   400.06385924
_cell_formula_units_Z   6
loop_
 _symmetry_equiv_pos_site_id
 _symmetry_equiv_pos_as_xyz
  1  'x, y, z'
loop_
 _atom_site_type_symbol
 _atom_site_label
 _atom_site_symmetry_multiplicity
 _atom_site_fract_x
 _atom_site_fract_y
 _atom_site_fract_z
 _atom_site_occupancy
  Li  Li0  1  0.05169600  0.51747500  0.58051700  1.0
  Li  Li1  1  0.05737600  0.76379800  0.19571000  1.0
  Li  Li2  1  0.08486400  0.69137300  0.80240600  1.0
  Li  Li3  1  0.09825900  0.29001500  0.11872100  1.0
  Li  Li4  1  0.10222700  0.27417800  0.85322900  1.0
  Li  Li5  1  0.36696400  0.07281200  0.66956500  1.0
  Li  Li6  1  0.53621200  0.93362300  0.87540000  1.0
  Li  Li7  1  0.57373400  0.72305800  0.36638300  1.0
  Li  Li8  1  0.58548700  0.56064600  0.15330400  1.0
  Li  Li9  1  0.60380700  0.50165300  0.78975300  1.0
  Li  Li10  1  0.62294500  0.98553700  0.16867200  1.0
  Li  Li11  1  0.67404900  0.25145900  0.34437100  1.0
  Be  Be12  1  0.10037500  0.76778300  0.41288700  1.0
  Be  Be13  1  0.14538200  0.22442100  0.45922900  1.0
  Be  Be14  1  0.19317300  0.05977900  0.31797000  1.0
  Be  Be15  1  0.20015000  0.39767100  0.31680200  1.0
  Be  Be16  1  0.94228700  0.60918500  0.98263100  1.0
  Be  Be17  1  0.99647600  0.95939600  0.99135600  1.0
  H  H18  1  0.07880400  0.00367100  0.43072200  1.0
  H  H19  1  0.11601700  0.20868900  0.57455300  1.0
  H  H20  1  0.17368900  0.51161000  0.93049900  1.0
  H  H21  1  0.24926100  0.03969500  0.94500700  1.0
  H  H22  1  0.30485400  0.71017600  0.48803100  1.0
  H  H23  1  0.37703400  0.37207000  0.41245300  1.0
  H  H24  1  0.39675500  0.76453500  0.05582800  1.0
  H  H25  1  0.40474900  0.81304400  0.74994700  1.0
  H  H26  1  0.41966000  0.18556000  0.03875700  1.0
  H  H27  1  0.43997800  0.24008500  0.77140800  1.0
  H  H28  1  0.48939800  0.25301400  0.07517400  1.0
  H  H29  1  0.55401500  0.42045500  0.62182100  1.0
  H  H30  1  0.55490700  0.78898700  0.05432100  1.0
  H  H31  1  0.56025700  0.50905600  0.57427800  1.0
  H  H32  1  0.57689000  0.98602300  0.53299000  1.0
  H  H33  1  0.68246800  0.05137600  0.55408300  1.0
  H  H34  1  0.71095700  0.73030700  0.23232800  1.0
  H  H35  1  0.76009100  0.65576500  0.89308600  1.0
  H  H36  1  0.81038800  0.08502800  0.92466700  1.0
  H  H37  1  0.82239400  0.45542500  0.06467200  1.0
  H  H38  1  0.85066800  0.69838800  0.46737000  1.0
  H  H39  1  0.96444300  0.49104100  0.72922600  1.0
  H  H40  1  0.97010500  0.38523400  0.40663800  1.0
  H  H41  1  0.97675600  0.01690200  0.10323800  1.0
