# generated using pymatgen
data_LiBeH3
_symmetry_space_group_name_H-M   P-1
_cell_length_a   4.69952600
_cell_length_b   6.17787661
_cell_length_c   6.51196185
_cell_angle_alpha   96.63601795
_cell_angle_beta   100.22552359
_cell_angle_gamma   106.85435868
_symmetry_Int_Tables_number   2
_chemical_formula_structural   LiBeH3
_chemical_formula_sum   'Li4 Be4 H12'
_cell_volume   175.24459068
_cell_formula_units_Z   4
loop_
 _symmetry_equiv_pos_site_id
 _symmetry_equiv_pos_as_xyz
  1  'x, y, z'
  2  '-x, -y, -z'
loop_
 _atom_site_type_symbol
 _atom_site_label
 _atom_site_symmetry_multiplicity
 _atom_site_fract_x
 _atom_site_fract_y
 _atom_site_fract_z
 _atom_site_occupancy
  Li  Li0  2  0.22924100  0.66793700  0.81333200  1.0
  Li  Li1  2  0.42061000  0.68491600  0.33654000  1.0
  Be  Be2  2  0.08773900  0.20811600  0.87155300  1.0
  Be  Be3  2  0.23746500  0.19102200  0.25935500  1.0
  H  H4  2  0.02767500  0.99339700  0.72905800  1.0
  H  H5  2  0.16655100  0.38853000  0.33878400  1.0
  H  H6  2  0.17586800  0.73972700  0.09358800  1.0
  H  H7  2  0.26401600  0.37306800  0.77113500  1.0
  H  H8  2  0.30681500  0.19584400  0.05348200  1.0
  H  H9  2  0.48079800  0.81430200  0.62210200  1.0
