# generated using pymatgen
data_LiBeH3
_symmetry_space_group_name_H-M   C2/c
_cell_length_a   4.69228115
_cell_length_b   5.91169149
_cell_length_c   5.91169149
_cell_angle_alpha   85.26266512
_cell_angle_beta   76.01843499
_cell_angle_gamma   76.01843499
_symmetry_Int_Tables_number   15
_chemical_formula_structural   LiBeH3
_chemical_formula_sum   'Li4 Be4 H12'
_cell_volume   154.36249662
_cell_formula_units_Z   4
loop_
 _symmetry_equiv_pos_site_id
 _symmetry_equiv_pos_as_xyz
  1  'x, y, z'
  2  '-x, -y, -z'
  3  '-x+1/2, -z, -y'
  4  'x+1/2, z, y'
loop_
 _atom_site_type_symbol
 _atom_site_label
 _atom_site_symmetry_multiplicity
 _atom_site_fract_x
 _atom_site_fract_y
 _atom_site_fract_z
 _atom_site_occupancy
  Li  Li0  2  0.25000000  0.29095500  0.70904500  1.0
  Li  Li1  2  0.25000000  0.90066500  0.09933500  1.0
  Be  Be2  4  0.23919300  0.37286800  0.19820500  1.0
  H  H3  4  0.04132100  0.65608400  0.63188600  1.0
  H  H4  4  0.15840300  0.60564500  0.11633000  1.0
  H  H5  4  0.16073200  0.97995800  0.79185200  1.0
