# generated using pymatgen
data_Be3Cu
_symmetry_space_group_name_H-M   R3m
_cell_length_a   4.16972632
_cell_length_b   4.16972632
_cell_length_c   7.21262307
_cell_angle_alpha   73.19844956
_cell_angle_beta   73.19844956
_cell_angle_gamma   59.99999485
_symmetry_Int_Tables_number   160
_chemical_formula_structural   Be3Cu
_chemical_formula_sum   'Be9 Cu3'
_cell_volume   102.37423857
_cell_formula_units_Z   3
loop_
 _symmetry_equiv_pos_site_id
 _symmetry_equiv_pos_as_xyz
  1  'x, y, z'
  2  '-x-y-z, x, z'
  3  'y, -x-y-z, z'
  4  'x, -x-y-z, z'
  5  '-x-y-z, y, z'
  6  'y, x, z'
loop_
 _atom_site_type_symbol
 _atom_site_label
 _atom_site_symmetry_multiplicity
 _atom_site_fract_x
 _atom_site_fract_y
 _atom_site_fract_z
 _atom_site_occupancy
  Be  Be0  3  0.06210100  0.06210100  0.31388400  1.0
  Be  Be1  3  0.06315100  0.56279500  0.81125900  1.0
  Be  Be2  1  0.12492500  0.12492500  0.62522500  1.0
  Be  Be3  1  0.31260500  0.31260500  0.06218500  1.0
  Be  Be4  1  0.81243700  0.81243700  0.56268900  1.0
  Cu  Cu5  1  0.00270900  0.00270900  0.99187300  1.0
  Cu  Cu6  1  0.49765800  0.49765800  0.50702600  1.0
  Cu  Cu7  1  0.62480800  0.62480800  0.12557600  1.0
