# generated using pymatgen
data_Sn3.44Bi4.56
_symmetry_space_group_name_H-M   Cmce
_cell_length_a   6.51268482
_cell_length_b   6.51268482
_cell_length_c   6.52694600
_cell_angle_alpha   90.00000000
_cell_angle_beta   90.00000000
_cell_angle_gamma   119.04972626
_symmetry_Int_Tables_number   64
_chemical_formula_structural   Sn3.44Bi4.56
_chemical_formula_sum   'Sn3.44 Bi4.56'
_cell_volume   242.01387049
_cell_formula_units_Z   1
loop_
 _symmetry_equiv_pos_site_id
 _symmetry_equiv_pos_as_xyz
  1  'x, y, z'
  2  '-x, -y, -z'
  3  '-x+1/2, -y+1/2, z+1/2'
  4  'x+1/2, y+1/2, -z+1/2'
  5  '-y, -x, -z'
  6  'y, x, z'
  7  'y+1/2, x+1/2, -z+1/2'
  8  '-y+1/2, -x+1/2, z+1/2'
loop_
 _atom_site_type_symbol
 _atom_site_label
 _atom_site_symmetry_multiplicity
 _atom_site_fract_x
 _atom_site_fract_y
 _atom_site_fract_z
 _atom_site_occupancy
  Sn  Sn0  4  0.15928800  0.15928800  0.67724300  0.86
  Bi  Bi1  4  0.15928800  0.15928800  0.67724300  0.14
  Bi  Bi2  4  0.20939300  0.79060700  0.00000000  1.0
