# generated using pymatgen
data_Tl5.92Bi2.08
_symmetry_space_group_name_H-M   P6_3/mmc
_cell_length_a   5.38916700
_cell_length_b   7.45811000
_cell_length_c   7.45811024
_cell_angle_alpha   119.99999894
_cell_angle_beta   90.00000000
_cell_angle_gamma   90.00000000
_symmetry_Int_Tables_number   194
_chemical_formula_structural   Tl5.92Bi2.08
_chemical_formula_sum   'Tl5.92 Bi2.08'
_cell_volume   259.60309215
_cell_formula_units_Z   1
loop_
 _symmetry_equiv_pos_site_id
 _symmetry_equiv_pos_as_xyz
  1  'x, y, z'
  2  '-x, -y, -z'
  3  'x+1/2, y-z, y'
  4  '-x+1/2, -y+z, -y'
  5  'x, -z, y-z'
  6  '-x, z, -y+z'
  7  'x+1/2, -y, -z'
  8  '-x+1/2, y, z'
  9  'x, -y+z, -y'
  10  '-x, y-z, y'
  11  'x+1/2, z, -y+z'
  12  '-x+1/2, -z, y-z'
  13  '-x+1/2, y, y-z'
  14  'x+1/2, -y, -y+z'
  15  '-x, y-z, -z'
  16  'x, -y+z, z'
  17  '-x+1/2, -z, -y'
  18  'x+1/2, z, y'
  19  '-x, -y, -y+z'
  20  'x, y, y-z'
  21  '-x+1/2, -y+z, z'
  22  'x+1/2, y-z, -z'
  23  '-x, z, y'
  24  'x, -z, -y'
loop_
 _atom_site_type_symbol
 _atom_site_label
 _atom_site_symmetry_multiplicity
 _atom_site_fract_x
 _atom_site_fract_y
 _atom_site_fract_z
 _atom_site_occupancy
  Tl  Tl0  6  0.25000000  0.16978100  0.33956200  0.9866666666666667
  Bi  Bi1  6  0.25000000  0.16978100  0.33956200
  0.013333333333333334
  Bi  Bi2  2  0.25000000  0.66666667  0.33333333  1.0
