# generated using pymatgen
data_Tl1.2Bi1.8
_symmetry_space_group_name_H-M   P6/mmm
_cell_length_a   3.44765800
_cell_length_b   5.71386400
_cell_length_c   5.71386454
_cell_angle_alpha   119.99999688
_cell_angle_beta   90.00000000
_cell_angle_gamma   90.00000000
_symmetry_Int_Tables_number   191
_chemical_formula_structural   Tl1.2Bi1.8
_chemical_formula_sum   'Tl1.2 Bi1.8'
_cell_volume   97.47980753
_cell_formula_units_Z   1
loop_
 _symmetry_equiv_pos_site_id
 _symmetry_equiv_pos_as_xyz
  1  'x, y, z'
  2  '-x, -y, -z'
  3  'x, y-z, y'
  4  '-x, -y+z, -y'
  5  'x, -z, y-z'
  6  '-x, z, -y+z'
  7  'x, -y, -z'
  8  '-x, y, z'
  9  'x, -y+z, -y'
  10  '-x, y-z, y'
  11  'x, z, -y+z'
  12  '-x, -z, y-z'
  13  '-x, y, y-z'
  14  'x, -y, -y+z'
  15  '-x, y-z, -z'
  16  'x, -y+z, z'
  17  '-x, -z, -y'
  18  'x, z, y'
  19  '-x, -y, -y+z'
  20  'x, y, y-z'
  21  '-x, -y+z, z'
  22  'x, y-z, -z'
  23  '-x, z, y'
  24  'x, -z, -y'
loop_
 _atom_site_type_symbol
 _atom_site_label
 _atom_site_symmetry_multiplicity
 _atom_site_fract_x
 _atom_site_fract_y
 _atom_site_fract_z
 _atom_site_occupancy
  Tl  Tl0  1  0.00000000  0.00000000  0.00000000  1.0
  Bi  Bi1  2  0.50000000  0.33333333  0.66666667  0.9
  Tl  Tl2  2  0.50000000  0.33333333  0.66666667  0.1
