# generated using pymatgen
data_Sn0.86Bi1.14
_symmetry_space_group_name_H-M   I-4m2
_cell_length_a   3.29175600
_cell_length_b   4.68566135
_cell_length_c   4.68566135
_cell_angle_alpha   82.91264454
_cell_angle_beta   69.43569502
_cell_angle_gamma   69.43569501
_symmetry_Int_Tables_number   119
_chemical_formula_structural   Sn0.86Bi1.14
_chemical_formula_sum   'Sn0.86 Bi1.14'
_cell_volume   63.35480786
_cell_formula_units_Z   1
loop_
 _symmetry_equiv_pos_site_id
 _symmetry_equiv_pos_as_xyz
  1  'x, y, z'
  2  '-x-y, -z, y'
  3  'x+y+z, -y, -z'
  4  '-x-z, z, -y'
  5  'x+y+z, -z, -y'
  6  '-x-z, -y, z'
  7  'x, z, y'
  8  '-x-y, y, -z'
loop_
 _atom_site_type_symbol
 _atom_site_label
 _atom_site_symmetry_multiplicity
 _atom_site_fract_x
 _atom_site_fract_y
 _atom_site_fract_z
 _atom_site_occupancy
  Sn  Sn0  1  0.00000000  0.00000000  0.00000000  0.86
  Bi  Bi1  1  0.00000000  0.00000000  0.00000000  0.14
  Bi  Bi2  1  0.75000000  0.50000000  0.50000000  1.0
