# generated using pymatgen
data_Bi
_symmetry_space_group_name_H-M   Cmce
_cell_length_a   6.50229838
_cell_length_b   6.50229786
_cell_length_c   6.90393100
_cell_angle_alpha   90.00000000
_cell_angle_beta   90.00000000
_cell_angle_gamma   116.86324367
_symmetry_Int_Tables_number   64
_chemical_formula_structural   Bi
_chemical_formula_sum   Bi8
_cell_volume   260.39803071
_cell_formula_units_Z   8
loop_
 _symmetry_equiv_pos_site_id
 _symmetry_equiv_pos_as_xyz
  1  'x, y, z'
  2  '-x, -y, -z'
  3  '-x+1/2, -y+1/2, z+1/2'
  4  'x+1/2, y+1/2, -z+1/2'
  5  '-y, -x, -z'
  6  'y, x, z'
  7  'y+1/2, x+1/2, -z+1/2'
  8  '-y+1/2, -x+1/2, z+1/2'
loop_
 _atom_site_type_symbol
 _atom_site_label
 _atom_site_symmetry_multiplicity
 _atom_site_fract_x
 _atom_site_fract_y
 _atom_site_fract_z
 _atom_site_occupancy
  Bi  Bi0  4  0.16688700  0.16688700  0.66696700  1.0
  Bi  Bi1  4  0.20399600  0.79600400  0.00000000  1.0
