# generated using pymatgen
data_La8(BiSb)3
_symmetry_space_group_name_H-M   C2
_cell_length_a   8.46327703
_cell_length_b   8.46327703
_cell_length_c   8.46983305
_cell_angle_alpha   109.54208114
_cell_angle_beta   109.38182907
_cell_angle_gamma   109.45842266
_symmetry_Int_Tables_number   5
_chemical_formula_structural   La8(BiSb)3
_chemical_formula_sum   'La8 Bi3 Sb3'
_cell_volume   467.19398065
_cell_formula_units_Z   1
loop_
 _symmetry_equiv_pos_site_id
 _symmetry_equiv_pos_as_xyz
  1  'x, y, z'
  2  'y-z, x-z, -z'
loop_
 _atom_site_type_symbol
 _atom_site_label
 _atom_site_symmetry_multiplicity
 _atom_site_fract_x
 _atom_site_fract_y
 _atom_site_fract_z
 _atom_site_occupancy
  La  La0  2  0.00330400  0.60901100  0.25861000  1.0
  La  La1  2  0.00543300  0.11468100  0.25851200  1.0
  La  La2  2  0.14212700  0.38961800  0.88839100  1.0
  La  La3  2  0.49612800  0.24851200  0.60345100  1.0
  Bi  Bi4  2  0.24840400  0.87288700  0.12320000  1.0
  Bi  Bi5  1  0.62710200  0.62710200  0.00000000  1.0
  Sb  Sb6  2  0.12650400  0.00137700  0.62616200  1.0
  Sb  Sb7  1  0.87323700  0.37323700  0.50000000  1.0
