# generated using pymatgen
data_La8(BiPb)3
_symmetry_space_group_name_H-M   C2
_cell_length_a   8.57021629
_cell_length_b   8.57021629
_cell_length_c   8.57466899
_cell_angle_alpha   109.70309113
_cell_angle_beta   109.19776552
_cell_angle_gamma   109.49217521
_symmetry_Int_Tables_number   5
_chemical_formula_structural   La8(BiPb)3
_chemical_formula_sum   'La8 Bi3 Pb3'
_cell_volume   484.93459905
_cell_formula_units_Z   1
loop_
 _symmetry_equiv_pos_site_id
 _symmetry_equiv_pos_as_xyz
  1  'x, y, z'
  2  'y-z, x-z, -z'
loop_
 _atom_site_type_symbol
 _atom_site_label
 _atom_site_symmetry_multiplicity
 _atom_site_fract_x
 _atom_site_fract_y
 _atom_site_fract_z
 _atom_site_occupancy
  La  La0  2  0.14405100  0.89254800  0.89288800  1.0
  La  La1  2  0.35442100  0.74971500  0.24905700  1.0
  La  La2  2  0.50106600  0.60740800  0.75125300  1.0
  La  La3  2  0.64602200  0.39430000  0.39567300  1.0
  Bi  Bi4  2  0.25012100  0.12538900  0.37541300  1.0
  Bi  Bi5  1  0.37400400  0.37400400  0.00000000  1.0
  Pb  Pb6  2  0.62504700  0.99978900  0.12545000  1.0
  Pb  Pb7  1  0.12585200  0.62585200  0.50000000  1.0
