# generated using pymatgen
data_Sr0.15Bi1.85Se3
_symmetry_space_group_name_H-M   C2/m
_cell_length_a   6.18213367
_cell_length_b   6.62848270
_cell_length_c   6.82554510
_cell_angle_alpha   64.64283316
_cell_angle_beta   89.99998584
_cell_angle_gamma   117.79639333
_symmetry_Int_Tables_number   12
_chemical_formula_structural   Sr0.15Bi1.85Se3
_chemical_formula_sum   'Sr0.15 Bi1.85 Se3'
_cell_volume   216.49607098
_cell_formula_units_Z   1
loop_
 _symmetry_equiv_pos_site_id
 _symmetry_equiv_pos_as_xyz
  1  'x, y, z'
  2  '-x, -y, -z'
  3  'x-y, -y, -z'
  4  '-x+y, y, z'
loop_
 _atom_site_type_symbol
 _atom_site_label
 _atom_site_symmetry_multiplicity
 _atom_site_fract_x
 _atom_site_fract_y
 _atom_site_fract_z
 _atom_site_occupancy
  Bi  Bi0  2  0.25772100  0.51544200  0.93863900  0.925
  Sr  Sr1  2  0.25772100  0.51544200  0.93863900  0.075
  Se  Se2  2  0.40089400  0.80178800  0.17011200  1.0
  Se  Se3  1  0.00000000  0.00000000  0.00000000  1.0
