# generated using pymatgen
data_Sr15Fe10(Bi5O23)2
_symmetry_space_group_name_H-M   C222
_cell_length_a   5.54635900
_cell_length_b   21.40565710
_cell_length_c   21.40565710
_cell_angle_alpha   100.09453379
_cell_angle_beta   90.00000000
_cell_angle_gamma   90.00000000
_symmetry_Int_Tables_number   21
_chemical_formula_structural   Sr15Fe10(Bi5O23)2
_chemical_formula_sum   'Sr30 Fe20 Bi20 O92'
_cell_volume   2502.01325787
_cell_formula_units_Z   2
loop_
 _symmetry_equiv_pos_site_id
 _symmetry_equiv_pos_as_xyz
  1  'x, y, z'
  2  'x, -y, -z'
  3  '-x, z, y'
  4  '-x, -z, -y'
loop_
 _atom_site_type_symbol
 _atom_site_label
 _atom_site_symmetry_multiplicity
 _atom_site_fract_x
 _atom_site_fract_y
 _atom_site_fract_z
 _atom_site_occupancy
  Sr  Sr0  4  0.24865300  0.10582600  0.59282600  1.0
  Sr  Sr1  4  0.24887900  0.43111800  0.67789500  1.0
  Sr  Sr2  4  0.24964900  0.00531000  0.28060900  1.0
  Sr  Sr3  4  0.25308700  0.31153700  0.78979000  1.0
  Sr  Sr4  4  0.25367600  0.21295400  0.46982600  1.0
  Sr  Sr5  4  0.25656700  0.18717600  0.90785100  1.0
  Sr  Sr6  4  0.25779300  0.37422500  0.10677100  1.0
  Sr  Sr7  2  0.25510800  0.50000000  0.00000000  1.0
  Fe  Fe8  4  0.24466000  0.05545500  0.43677800  1.0
  Fe  Fe9  4  0.24638300  0.15248400  0.75010400  1.0
  Fe  Fe10  4  0.24949600  0.26974200  0.62767600  1.0
  Fe  Fe11  4  0.25063700  0.46992700  0.83676300  1.0
  Fe  Fe12  4  0.25215300  0.34439600  0.94943400  1.0
  Bi  Bi13  4  0.21204800  0.39689100  0.48147500  1.0
  Bi  Bi14  4  0.21919100  0.18313800  0.28279600  1.0
  Bi  Bi15  4  0.22016500  0.00750800  0.89996300  1.0
  Bi  Bi16  4  0.22572300  0.37594100  0.28352000  1.0
  Bi  Bi17  4  0.22963000  0.19122700  0.08718800  1.0
  O  O18  4  0.00110600  0.47682000  0.11537100  1.0
  O  O19  4  0.00163500  0.42897700  0.77599700  1.0
  O  O20  4  0.00250200  0.28849800  0.90662300  1.0
  O  O21  4  0.00656100  0.38287500  0.00958300  1.0
  O  O22  4  0.13552000  0.45061100  0.36031100  1.0
  O  O23  4  0.15313200  0.26511300  0.36027400  1.0
  O  O24  4  0.15456500  0.07816000  0.18642100  1.0
  O  O25  4  0.16556400  0.27253500  0.17098800  1.0
  O  O26  4  0.16592300  0.09926300  0.98712600  1.0
  O  O27  4  0.23605600  0.21200800  0.69058600  1.0
  O  O28  4  0.24255400  0.40570200  0.89260900  1.0
  O  O29  4  0.25741400  0.12296100  0.34902100  1.0
  O  O30  4  0.26662600  0.06976400  0.83590500  1.0
  O  O31  4  0.27100200  0.44209200  0.22342700  1.0
  O  O32  4  0.27436000  0.25623700  0.02598800  1.0
  O  O33  4  0.29938500  0.33111800  0.53816900  1.0
  O  O34  4  0.49323600  0.11376700  0.47896000  1.0
  O  O35  4  0.49445200  0.09506100  0.70919200  1.0
  O  O36  4  0.49701500  0.42496300  0.77947900  1.0
  O  O37  4  0.49809100  0.00782400  0.38482200  1.0
  O  O38  2  0.00000000  0.19164800  0.80835200  1.0
  O  O39  2  0.00000000  0.33083400  0.66916600  1.0
  O  O40  2  0.00000000  0.44199500  0.55800500  1.0
  O  O41  2  0.23788000  0.00000000  0.50000000  1.0
  O  O42  2  0.50000000  0.19462200  0.80537800  1.0
  O  O43  2  0.50000000  0.32775300  0.67224700  1.0
