# generated using pymatgen
data_Bi14Rh3
_symmetry_space_group_name_H-M   Fddd
_cell_length_a   6.93186800
_cell_length_b   9.52758615
_cell_length_c   16.43819857
_cell_angle_alpha   85.60101115
_cell_angle_beta   77.82804543
_cell_angle_gamma   68.66755180
_symmetry_Int_Tables_number   70
_chemical_formula_structural   Bi14Rh3
_chemical_formula_sum   'Bi28 Rh6'
_cell_volume   988.52743738
_cell_formula_units_Z   2
loop_
 _symmetry_equiv_pos_site_id
 _symmetry_equiv_pos_as_xyz
  1  'x, y, z'
  2  '-x-z, -y, z'
  3  'x+y+z, -y, -z'
  4  '-x-y, y, -z'
  5  '-x+3/4, -y+1/2, -z+1/2'
  6  'x+z+3/4, y+1/2, -z+1/2'
  7  '-x-y-z+3/4, y+1/2, z+1/2'
  8  'x+y+3/4, -y+1/2, z+1/2'
loop_
 _atom_site_type_symbol
 _atom_site_label
 _atom_site_symmetry_multiplicity
 _atom_site_fract_x
 _atom_site_fract_y
 _atom_site_fract_z
 _atom_site_occupancy
  Bi  Bi0  8  0.05023200  0.73543600  0.39389300  1.0
  Bi  Bi1  8  0.05789100  0.37925400  0.39506200  1.0
  Bi  Bi2  8  0.11147500  0.06106800  0.28348700  1.0
  Bi  Bi3  4  0.22317500  0.55365000  0.00000000  1.0
  Rh  Rh4  4  0.37500000  0.25000000  0.25000000  1.0
  Rh  Rh5  2  0.25000000  0.50000000  0.50000000  1.0
