# generated using pymatgen
data_Ce2Bi2S4O1.5F0.5
_symmetry_space_group_name_H-M   P4/nmm
_cell_length_a   4.01554100
_cell_length_b   4.01554100
_cell_length_c   13.61461500
_cell_angle_alpha   90.00000000
_cell_angle_beta   90.00000000
_cell_angle_gamma   90.00000000
_symmetry_Int_Tables_number   129
_chemical_formula_structural   Ce2Bi2S4O1.5F0.5
_chemical_formula_sum   'Ce2 Bi2 S4 O1.5 F0.5'
_cell_volume   219.52980609
_cell_formula_units_Z   1
loop_
 _symmetry_equiv_pos_site_id
 _symmetry_equiv_pos_as_xyz
  1  'x, y, z'
  2  '-y+1/2, x+1/2, z'
  3  '-x, -y, z'
  4  'y+1/2, -x+1/2, z'
  5  'x+1/2, -y+1/2, -z'
  6  '-y, -x, -z'
  7  '-x+1/2, y+1/2, -z'
  8  'y, x, -z'
  9  '-x+1/2, -y+1/2, -z'
  10  'y, -x, -z'
  11  'x+1/2, y+1/2, -z'
  12  '-y, x, -z'
  13  '-x, y, z'
  14  'y+1/2, x+1/2, z'
  15  'x, -y, z'
  16  '-y+1/2, -x+1/2, z'
loop_
 _atom_site_type_symbol
 _atom_site_label
 _atom_site_symmetry_multiplicity
 _atom_site_fract_x
 _atom_site_fract_y
 _atom_site_fract_z
 _atom_site_occupancy
  Ce  Ce0  2  0.00000000  0.50000000  0.40925100  1.0
  Bi  Bi1  2  0.00000000  0.50000000  0.87566200  1.0
  S  S2  2  0.00000000  0.50000000  0.11902000  1.0
  S  S3  2  0.00000000  0.50000000  0.68513000  1.0
  O  O4  2  0.00000000  0.00000000  0.50000000  0.75
  F  F5  2  0.00000000  0.00000000  0.50000000  0.25
