# generated using pymatgen
data_Sr8Ca1.4Y2.6Cu8Bi4Pb4O32
_symmetry_space_group_name_H-M   P2/c
_cell_length_a   5.39314700
_cell_length_b   5.46205321
_cell_length_c   31.57964053
_cell_angle_alpha   90.15485132
_cell_angle_beta   90.00000000
_cell_angle_gamma   90.00000000
_symmetry_Int_Tables_number   13
_chemical_formula_structural   Sr8Ca1.4Y2.6Cu8Bi4Pb4O32
_chemical_formula_sum   'Sr8 Ca1.4 Y2.6 Cu8 Bi4 Pb4 O32'
_cell_volume   930.25878615
_cell_formula_units_Z   1
loop_
 _symmetry_equiv_pos_site_id
 _symmetry_equiv_pos_as_xyz
  1  'x, y, z'
  2  '-x, -y, -z'
  3  'x, -y+1/2, -z+1/2'
  4  '-x, y+1/2, z+1/2'
loop_
 _atom_site_type_symbol
 _atom_site_label
 _atom_site_symmetry_multiplicity
 _atom_site_fract_x
 _atom_site_fract_y
 _atom_site_fract_z
 _atom_site_occupancy
  Sr  Sr0  4  0.03803300  0.74677200  0.86180900  1.0
  Sr  Sr1  4  0.46326700  0.74454100  0.13938900  1.0
  Ca  Ca2  2  0.46433400  0.75000000  0.25000000  0.7
  Y  Y3  2  0.46433400  0.75000000  0.25000000  0.3
  Y  Y4  2  0.03604400  0.75000000  0.75000000  1.0
  Cu  Cu5  4  0.03858200  0.24953000  0.69722600  1.0
  Cu  Cu6  4  0.46130900  0.24884700  0.30478300  1.0
  Bi  Bi7  4  0.00093800  0.22678300  0.94616800  1.0
  Pb  Pb8  4  0.48643700  0.23910700  0.05288000  1.0
  O  O9  4  0.05166800  0.21415000  0.61956500  1.0
  O  O10  4  0.09038800  0.65003600  0.55940100  1.0
  O  O11  4  0.19785100  0.01309500  0.20043800  1.0
  O  O12  4  0.21472600  0.50425300  0.20381600  1.0
  O  O13  4  0.27631500  0.51171600  0.79619400  1.0
  O  O14  4  0.29237300  0.00371200  0.79970600  1.0
  O  O15  4  0.38737700  0.66747200  0.43871200  1.0
  O  O16  4  0.45416100  0.21464300  0.37751600  1.0
