# generated using pymatgen
data_Cs2Bi
_symmetry_space_group_name_H-M   C2/c
_cell_length_a   7.37472695
_cell_length_b   7.37472695
_cell_length_c   10.31727151
_cell_angle_alpha   99.95222864
_cell_angle_beta   99.95222864
_cell_angle_gamma   91.87550900
_symmetry_Int_Tables_number   15
_chemical_formula_structural   Cs2Bi
_chemical_formula_sum   'Cs6 Bi3'
_cell_volume   543.22668320
_cell_formula_units_Z   3
loop_
 _symmetry_equiv_pos_site_id
 _symmetry_equiv_pos_as_xyz
  1  'x, y, z'
  2  '-x, -y, -z'
  3  '-y, -x, -z+1/2'
  4  'y, x, z+1/2'
loop_
 _atom_site_type_symbol
 _atom_site_label
 _atom_site_symmetry_multiplicity
 _atom_site_fract_x
 _atom_site_fract_y
 _atom_site_fract_z
 _atom_site_occupancy
  Cs  Cs0  4  0.24090900  0.33651900  0.01538900  1.0
  Cs  Cs1  2  0.16020300  0.83979700  0.75000000  1.0
  Bi  Bi2  4  0.12238800  0.68792000  0.33915200  0.75
