# generated using pymatgen
data_CrBi
_symmetry_space_group_name_H-M   P2_1/c
_cell_length_a   4.10555500
_cell_length_b   6.52530822
_cell_length_c   7.56463100
_cell_angle_alpha   90.00000000
_cell_angle_beta   90.00000000
_cell_angle_gamma   89.77521740
_symmetry_Int_Tables_number   14
_chemical_formula_structural   CrBi
_chemical_formula_sum   'Cr4 Bi4'
_cell_volume   202.65499408
_cell_formula_units_Z   4
loop_
 _symmetry_equiv_pos_site_id
 _symmetry_equiv_pos_as_xyz
  1  'x, y, z'
  2  '-x, -y, -z'
  3  '-x, -y+1/2, z+1/2'
  4  'x, y+1/2, -z+1/2'
loop_
 _atom_site_type_symbol
 _atom_site_label
 _atom_site_symmetry_multiplicity
 _atom_site_fract_x
 _atom_site_fract_y
 _atom_site_fract_z
 _atom_site_occupancy
  Cr  Cr0  4  0.27337100  0.17635400  0.57331200  1.0
  Bi  Bi1  4  0.22778500  0.03285200  0.21261100  1.0
