# generated using pymatgen
data_La1.5Y0.5Bi2S4O1F1
_symmetry_space_group_name_H-M   P-4m2
_cell_length_a   4.10957700
_cell_length_b   4.10957700
_cell_length_c   13.15013600
_cell_angle_alpha   90.00000000
_cell_angle_beta   90.00000000
_cell_angle_gamma   90.00000000
_symmetry_Int_Tables_number   115
_chemical_formula_structural   La1.5Y0.5Bi2S4O1F1
_chemical_formula_sum   'La1.5 Y0.5 Bi2 S4 O1 F1'
_cell_volume   222.08769087
_cell_formula_units_Z   1
loop_
 _symmetry_equiv_pos_site_id
 _symmetry_equiv_pos_as_xyz
  1  'x, y, z'
  2  'y, -x, -z'
  3  '-x, -y, z'
  4  '-y, x, -z'
  5  '-x, y, z'
  6  '-y, -x, -z'
  7  'x, -y, z'
  8  'y, x, -z'
loop_
 _atom_site_type_symbol
 _atom_site_label
 _atom_site_symmetry_multiplicity
 _atom_site_fract_x
 _atom_site_fract_y
 _atom_site_fract_z
 _atom_site_occupancy
  La  La0  2  0.00000000  0.50000000  0.89396600  0.75
  Y  Y1  2  0.00000000  0.50000000  0.89396600  0.25
  Bi  Bi2  2  0.00000000  0.50000000  0.38350700  1.0
  S  S3  2  0.00000000  0.50000000  0.18334700  1.0
  S  S4  2  0.00000000  0.50000000  0.62189300  1.0
  O  O5  1  0.50000000  0.50000000  0.00000000  1.0
  F  F6  1  0.00000000  0.00000000  0.00000000  1.0
