# generated using pymatgen
data_Sr1.5La0.5Bi2S4F2
_symmetry_space_group_name_H-M   P4/nmm
_cell_length_a   4.06504500
_cell_length_b   4.06504500
_cell_length_c   14.25333300
_cell_angle_alpha   90.00000000
_cell_angle_beta   90.00000000
_cell_angle_gamma   90.00000000
_symmetry_Int_Tables_number   129
_chemical_formula_structural   Sr1.5La0.5Bi2S4F2
_chemical_formula_sum   'Sr1.5 La0.5 Bi2 S4 F2'
_cell_volume   235.53049610
_cell_formula_units_Z   1
loop_
 _symmetry_equiv_pos_site_id
 _symmetry_equiv_pos_as_xyz
  1  'x, y, z'
  2  '-y+1/2, x+1/2, z'
  3  '-x, -y, z'
  4  'y+1/2, -x+1/2, z'
  5  'x+1/2, -y+1/2, -z'
  6  '-y, -x, -z'
  7  '-x+1/2, y+1/2, -z'
  8  'y, x, -z'
  9  '-x+1/2, -y+1/2, -z'
  10  'y, -x, -z'
  11  'x+1/2, y+1/2, -z'
  12  '-y, x, -z'
  13  '-x, y, z'
  14  'y+1/2, x+1/2, z'
  15  'x, -y, z'
  16  '-y+1/2, -x+1/2, z'
loop_
 _atom_site_type_symbol
 _atom_site_label
 _atom_site_symmetry_multiplicity
 _atom_site_fract_x
 _atom_site_fract_y
 _atom_site_fract_z
 _atom_site_occupancy
  Sr  Sr0  2  0.00000000  0.50000000  0.89714300  0.75
  La  La1  2  0.00000000  0.50000000  0.89714300  0.25
  Bi  Bi2  2  0.00000000  0.50000000  0.36716300  1.0
  S  S3  2  0.00000000  0.50000000  0.19083100  1.0
  S  S4  2  0.00000000  0.50000000  0.61097100  1.0
  F  F5  2  0.00000000  0.00000000  0.00000000  1.0
