# generated using pymatgen
data_KBiO3
_symmetry_space_group_name_H-M   Pn-3
_cell_length_a   10.21523600
_cell_length_b   10.21523600
_cell_length_c   10.21523600
_cell_angle_alpha   90.00000000
_cell_angle_beta   90.00000000
_cell_angle_gamma   90.00000000
_symmetry_Int_Tables_number   201
_chemical_formula_structural   KBiO3
_chemical_formula_sum   'K12 Bi12 O36'
_cell_volume   1065.97056721
_cell_formula_units_Z   12
loop_
 _symmetry_equiv_pos_site_id
 _symmetry_equiv_pos_as_xyz
  1  'x, y, z'
  2  '-x, -y, z'
  3  'x, -y, -z'
  4  '-x, y, -z'
  5  'z, x, y'
  6  'z, -x, -y'
  7  '-z, x, -y'
  8  '-z, -x, y'
  9  'y, z, x'
  10  '-y, z, -x'
  11  '-y, -z, x'
  12  'y, -z, -x'
  13  '-x+1/2, -y+1/2, -z+1/2'
  14  'x+1/2, y+1/2, -z+1/2'
  15  '-x+1/2, y+1/2, z+1/2'
  16  'x+1/2, -y+1/2, z+1/2'
  17  '-z+1/2, -x+1/2, -y+1/2'
  18  '-z+1/2, x+1/2, y+1/2'
  19  'z+1/2, -x+1/2, y+1/2'
  20  'z+1/2, x+1/2, -y+1/2'
  21  '-y+1/2, -z+1/2, -x+1/2'
  22  'y+1/2, -z+1/2, x+1/2'
  23  'y+1/2, z+1/2, -x+1/2'
  24  '-y+1/2, z+1/2, x+1/2'
loop_
 _atom_site_type_symbol
 _atom_site_label
 _atom_site_symmetry_multiplicity
 _atom_site_fract_x
 _atom_site_fract_y
 _atom_site_fract_z
 _atom_site_occupancy
  K  K0  8  0.15558100  0.15558100  0.15558100  1.0
  K  K1  4  0.25000000  0.25000000  0.75000000  1.0
  Bi  Bi2  12  0.00000000  0.34052400  0.50000000  1.0
  O  O3  24  0.00286800  0.33444600  0.28666200  1.0
  O  O4  12  0.00000000  0.00000000  0.35948700  1.0
