# generated using pymatgen
data_KBi
_symmetry_space_group_name_H-M   P2_1/c
_cell_length_a   7.41583100
_cell_length_b   13.72150000
_cell_length_c   14.56611646
_cell_angle_alpha   113.37553165
_cell_angle_beta   90.00000000
_cell_angle_gamma   90.00000000
_symmetry_Int_Tables_number   14
_chemical_formula_structural   KBi
_chemical_formula_sum   'K16 Bi16'
_cell_volume   1360.54210256
_cell_formula_units_Z   16
loop_
 _symmetry_equiv_pos_site_id
 _symmetry_equiv_pos_as_xyz
  1  'x, y, z'
  2  '-x, -y, -z'
  3  'x+1/2, -y+1/2, -z'
  4  '-x+1/2, y+1/2, z'
loop_
 _atom_site_type_symbol
 _atom_site_label
 _atom_site_symmetry_multiplicity
 _atom_site_fract_x
 _atom_site_fract_y
 _atom_site_fract_z
 _atom_site_occupancy
  K  K0  4  0.07218100  0.19176800  0.65384500  1.0
  K  K1  4  0.11775000  0.14729000  0.12013300  1.0
  K  K2  4  0.13947500  0.55400100  0.84875500  1.0
  K  K3  4  0.19868800  0.53907800  0.39528800  1.0
  Bi  Bi4  4  0.06429900  0.27330300  0.39295900  1.0
  Bi  Bi5  4  0.12809000  0.87085400  0.11045800  1.0
  Bi  Bi6  4  0.12889800  0.31678200  0.92623900  1.0
  Bi  Bi7  4  0.20269900  0.88698000  0.57848800  1.0
