# generated using pymatgen
data_K1.8Sr1.2Bi3O9
_symmetry_space_group_name_H-M   P-3m1
_cell_length_a   6.12553200
_cell_length_b   6.12553259
_cell_length_c   7.55404200
_cell_angle_alpha   90.00000000
_cell_angle_beta   90.00000000
_cell_angle_gamma   119.99999684
_symmetry_Int_Tables_number   164
_chemical_formula_structural   K1.8Sr1.2Bi3O9
_chemical_formula_sum   'K1.8 Sr1.2 Bi3 O9'
_cell_volume   245.46959635
_cell_formula_units_Z   1
loop_
 _symmetry_equiv_pos_site_id
 _symmetry_equiv_pos_as_xyz
  1  'x, y, z'
  2  '-x, -y, -z'
  3  '-y, x-y, z'
  4  'y, -x+y, -z'
  5  '-x+y, -x, z'
  6  'x-y, x, -z'
  7  'y, x, -z'
  8  '-y, -x, z'
  9  'x-y, -y, -z'
  10  '-x+y, y, z'
  11  '-x, -x+y, -z'
  12  'x, x-y, z'
loop_
 _atom_site_type_symbol
 _atom_site_label
 _atom_site_symmetry_multiplicity
 _atom_site_fract_x
 _atom_site_fract_y
 _atom_site_fract_z
 _atom_site_occupancy
  K  K0  1  0.00000000  0.00000000  0.00000000  1.0
  Sr  Sr1  2  0.33333333  0.66666667  0.63709600  0.6
  K  K2  2  0.33333333  0.66666667  0.63709600  0.4
  Bi  Bi3  2  0.33333333  0.66666667  0.15924200  1.0
  Bi  Bi4  1  0.00000000  0.00000000  0.50000000  1.0
  O  O5  6  0.17418500  0.34837000  0.35239000  1.0
  O  O6  3  0.00000000  0.50000000  0.00000000  1.0
