# generated using pymatgen
data_K1Sr0.66666667Bi1.66666667O5
_symmetry_space_group_name_H-M   P4/mmm
_cell_length_a   4.42830996
_cell_length_b   4.42830996
_cell_length_c   7.87414400
_cell_angle_alpha   90.00000000
_cell_angle_beta   90.00000000
_cell_angle_gamma   90.00000000
_symmetry_Int_Tables_number   123
_chemical_formula_structural   K1Sr0.66666667Bi1.66666667O5
_chemical_formula_sum   'K1 Sr0.66666667 Bi1.66666667 O5'
_cell_volume   154.41140558
_cell_formula_units_Z   1
loop_
 _symmetry_equiv_pos_site_id
 _symmetry_equiv_pos_as_xyz
  1  'x, y, z'
  2  '-x, -y, -z+1/2'
  3  '-y, x, z'
  4  'y, -x, -z+1/2'
  5  '-x, -y, z'
  6  'x, y, -z+1/2'
  7  'y, -x, z'
  8  '-y, x, -z+1/2'
  9  'x, -y, -z+1/2'
  10  '-x, y, z'
  11  '-y, -x, -z+1/2'
  12  'y, x, z'
  13  '-x, y, -z+1/2'
  14  'x, -y, z'
  15  'y, x, -z+1/2'
  16  '-y, -x, z'
loop_
 _atom_site_type_symbol
 _atom_site_label
 _atom_site_symmetry_multiplicity
 _atom_site_fract_x
 _atom_site_fract_y
 _atom_site_fract_z
 _atom_site_occupancy
  K  K0  1  0.50000000  0.50000000  0.25000000  1.0
  Sr  Sr1  1  0.50000000  0.50000000  0.75000000  0.6666666667000001
  Bi  Bi2  2  0.00000000  0.00000000  0.01649800  0.83333333335
  O  O3  4  0.00000000  0.50000000  0.50637100  1.0
  O  O4  1  0.00000000  0.00000000  0.75000000  1.0
