# generated using pymatgen
data_K1.2Sr0.8Bi2O6
_symmetry_space_group_name_H-M   I-42m
_cell_length_a   5.99150800
_cell_length_b   6.07880892
_cell_length_c   5.99150800
_cell_angle_alpha   119.52605114
_cell_angle_beta   89.99999999
_cell_angle_gamma   119.52605115
_symmetry_Int_Tables_number   121
_chemical_formula_structural   K1.2Sr0.8Bi2O6
_chemical_formula_sum   'K1.2 Sr0.8 Bi2 O6'
_cell_volume   156.48815588
_cell_formula_units_Z   1
loop_
 _symmetry_equiv_pos_site_id
 _symmetry_equiv_pos_as_xyz
  1  'x, y, z'
  2  '-y+z, -y, -x'
  3  '-x+y, y, y-z'
  4  '-z, -y, x-y'
  5  '-x, -y, -y+z'
  6  'y-z, y, -x+y'
  7  'x-y, -y, -z'
  8  'z, y, x'
loop_
 _atom_site_type_symbol
 _atom_site_label
 _atom_site_symmetry_multiplicity
 _atom_site_fract_x
 _atom_site_fract_y
 _atom_site_fract_z
 _atom_site_occupancy
  K  K0  1  0.00000000  0.00000000  0.00000000  1.0
  Sr  Sr1  1  0.50000000  0.00000000  0.50000000  0.8
  K  K2  1  0.50000000  0.00000000  0.50000000  0.2
  Bi  Bi3  2  0.25000000  0.50000000  0.75000000  1.0
  O  O4  4  0.07652500  0.53437900  0.45785400  1.0
  O  O5  2  0.00000000  0.00000000  0.50000000  1.0
