# generated using pymatgen
data_KBiO3
_symmetry_space_group_name_H-M   C2/m
_cell_length_a   8.77023083
_cell_length_b   8.77023083
_cell_length_c   8.94538689
_cell_angle_alpha   109.82061697
_cell_angle_beta   109.61138821
_cell_angle_gamma   108.16831625
_symmetry_Int_Tables_number   12
_chemical_formula_structural   KBiO3
_chemical_formula_sum   'K6 Bi6 O18'
_cell_volume   534.81426362
_cell_formula_units_Z   6
loop_
 _symmetry_equiv_pos_site_id
 _symmetry_equiv_pos_as_xyz
  1  'x, y, z'
  2  '-x, -y, -z'
  3  'y-z, x-z, -z'
  4  '-y+z, -x+z, z'
loop_
 _atom_site_type_symbol
 _atom_site_label
 _atom_site_symmetry_multiplicity
 _atom_site_fract_x
 _atom_site_fract_y
 _atom_site_fract_z
 _atom_site_occupancy
  K  K0  4  0.01200800  0.01083400  0.69109300  1.0
  K  K1  2  0.00000000  0.50000000  0.00000000  1.0
  Bi  Bi2  2  0.15898200  0.50191700  0.66089900  1.0
  Bi  Bi3  2  0.34113900  0.84113900  0.50000000  1.0
  Bi  Bi4  2  0.49993300  0.65980700  0.15974000  1.0
  O  O5  4  0.04824100  0.71676000  0.33991400  1.0
  O  O6  4  0.33280100  0.04886200  0.71078900  1.0
  O  O7  2  0.00537100  0.35915200  0.36452300  1.0
  O  O8  2  0.28588200  0.66487000  0.95075200  1.0
  O  O9  2  0.28720400  0.33285900  0.62006300  1.0
  O  O10  2  0.35998400  0.00395200  0.36393600  1.0
  O  O11  2  0.36040400  0.36040400  0.00000000  1.0
