# generated using pymatgen
data_La4BiPb2
_symmetry_space_group_name_H-M   I-42d
_cell_length_a   8.57380428
_cell_length_b   8.57380428
_cell_length_c   8.57380428
_cell_angle_alpha   109.70769967
_cell_angle_beta   109.35311068
_cell_angle_gamma   109.35311068
_symmetry_Int_Tables_number   122
_chemical_formula_structural   La4BiPb2
_chemical_formula_sum   'La8 Bi2 Pb4'
_cell_volume   485.16923486
_cell_formula_units_Z   2
loop_
 _symmetry_equiv_pos_site_id
 _symmetry_equiv_pos_as_xyz
  1  'x, y, z'
  2  'y-z, -z, x-z'
  3  '-x, -x+z, -x+y'
  4  '-y+z, x-y, -y'
  5  'y-z+1/2, x-z+1/4, -z+3/4'
  6  '-x+1/2, -x+y+1/4, -x+z+3/4'
  7  '-y+z+1/2, -y+1/4, x-y+3/4'
  8  'x+1/2, z+1/4, y+3/4'
loop_
 _atom_site_type_symbol
 _atom_site_label
 _atom_site_symmetry_multiplicity
 _atom_site_fract_x
 _atom_site_fract_y
 _atom_site_fract_z
 _atom_site_occupancy
  La  La0  8  0.10534600  0.37367300  0.12286100  1.0
  Bi  Bi1  2  0.00000000  0.50000000  0.50000000  1.0
  Pb  Pb2  4  0.12384300  0.12500000  0.74884300  1.0
