# generated using pymatgen
data_MgBi
_symmetry_space_group_name_H-M   C2
_cell_length_a   5.67553023
_cell_length_b   5.78188423
_cell_length_c   5.78188423
_cell_angle_alpha   66.57149107
_cell_angle_beta   78.11191798
_cell_angle_gamma   78.11191798
_symmetry_Int_Tables_number   5
_chemical_formula_structural   MgBi
_chemical_formula_sum   'Mg3 Bi3'
_cell_volume   168.72293298
_cell_formula_units_Z   3
loop_
 _symmetry_equiv_pos_site_id
 _symmetry_equiv_pos_as_xyz
  1  'x, y, z'
  2  '-x, -z, -y'
loop_
 _atom_site_type_symbol
 _atom_site_label
 _atom_site_symmetry_multiplicity
 _atom_site_fract_x
 _atom_site_fract_y
 _atom_site_fract_z
 _atom_site_occupancy
  Mg  Mg0  2  0.02314500  0.63293700  0.02299800  1.0
  Mg  Mg1  1  0.50000000  0.54099200  0.45900800  1.0
  Bi  Bi2  2  0.47844600  0.16303000  0.18544200  1.0
  Bi  Bi3  1  0.00000000  0.37147800  0.62852200  1.0
