# generated using pymatgen
data_MgBi
_symmetry_space_group_name_H-M   C2/m
_cell_length_a   3.56550400
_cell_length_b   5.32417077
_cell_length_c   6.17353306
_cell_angle_alpha   100.97708389
_cell_angle_beta   106.78453423
_cell_angle_gamma   90.00000000
_symmetry_Int_Tables_number   12
_chemical_formula_structural   MgBi
_chemical_formula_sum   'Mg2 Bi2'
_cell_volume   109.96000423
_cell_formula_units_Z   2
loop_
 _symmetry_equiv_pos_site_id
 _symmetry_equiv_pos_as_xyz
  1  'x, y, z'
  2  '-x, -y, -z'
  3  'x-z, -y, -z'
  4  '-x+z, y, z'
loop_
 _atom_site_type_symbol
 _atom_site_label
 _atom_site_symmetry_multiplicity
 _atom_site_fract_x
 _atom_site_fract_y
 _atom_site_fract_z
 _atom_site_occupancy
  Mg  Mg0  2  0.12710200  0.79144300  0.25420400  1.0
  Bi  Bi1  2  0.38155100  0.72197600  0.76310200  1.0
