# generated using pymatgen
data_NiBi
_symmetry_space_group_name_H-M   Cm
_cell_length_a   8.23272078
_cell_length_b   8.23272078
_cell_length_c   11.52059437
_cell_angle_alpha   100.46584293
_cell_angle_beta   100.40483148
_cell_angle_gamma   119.54305727
_symmetry_Int_Tables_number   8
_chemical_formula_structural   NiBi
_chemical_formula_sum   'Ni16 Bi16'
_cell_volume   633.83229722
_cell_formula_units_Z   16
loop_
 _symmetry_equiv_pos_site_id
 _symmetry_equiv_pos_as_xyz
  1  'x, y, z'
  2  '-y+z, -x+z, z'
loop_
 _atom_site_type_symbol
 _atom_site_label
 _atom_site_symmetry_multiplicity
 _atom_site_fract_x
 _atom_site_fract_y
 _atom_site_fract_z
 _atom_site_occupancy
  Ni  Ni0  2  0.00081200  0.50047800  0.99981800  1.0
  Ni  Ni1  2  0.11719300  0.61422500  0.24874800  1.0
  Ni  Ni2  2  0.26461900  0.76451200  0.50240600  1.0
  Ni  Ni3  2  0.36957300  0.87012000  0.74838900  1.0
  Ni  Ni4  1  0.10500400  0.77245800  0.87746200  1.0
  Ni  Ni5  1  0.11642400  0.12711100  0.24353600  1.0
  Ni  Ni6  1  0.24350700  0.23784900  0.48135600  1.0
  Ni  Ni7  1  0.64507500  0.97626800  0.62134300  1.0
  Ni  Ni8  1  0.74852300  0.75794400  0.50646700  1.0
  Ni  Ni9  1  0.87807900  0.87315100  0.75123000  1.0
  Ni  Ni10  1  0.89494000  0.22881800  0.12375800  1.0
  Ni  Ni11  1  0.99999600  0.99918800  0.99918400  1.0
  Bi  Bi12  2  0.01232800  0.84594800  0.37361400  1.0
  Bi  Bi13  2  0.01237700  0.16301300  0.63076900  1.0
  Bi  Bi14  2  0.25901400  0.40912800  0.12555100  1.0
  Bi  Bi15  2  0.28720500  0.13548100  0.87829200  1.0
  Bi  Bi16  1  0.02096900  0.35942800  0.38039700  1.0
  Bi  Bi17  1  0.23180700  0.89873400  0.13054100  1.0
  Bi  Bi18  1  0.28705200  0.59046900  0.87752000  1.0
  Bi  Bi19  1  0.46605000  0.16205400  0.62810500  1.0
  Bi  Bi20  1  0.52095700  0.84867400  0.36963100  1.0
  Bi  Bi21  1  0.71373800  0.41217500  0.12591400  1.0
  Bi  Bi22  1  0.77054600  0.10521900  0.87576500  1.0
  Bi  Bi23  1  0.97722600  0.64398800  0.62121400  1.0
