# generated using pymatgen
data_BiTePt
_symmetry_space_group_name_H-M   P2_13
_cell_length_a   6.76360600
_cell_length_b   6.76360600
_cell_length_c   6.76360600
_cell_angle_alpha   90.00000000
_cell_angle_beta   90.00000000
_cell_angle_gamma   90.00000000
_symmetry_Int_Tables_number   198
_chemical_formula_structural   BiTePt
_chemical_formula_sum   'Bi4 Te4 Pt4'
_cell_volume   309.41039639
_cell_formula_units_Z   4
loop_
 _symmetry_equiv_pos_site_id
 _symmetry_equiv_pos_as_xyz
  1  'x, y, z'
  2  '-x+1/2, -y, z+1/2'
  3  'x+1/2, -y+1/2, -z'
  4  '-x, y+1/2, -z+1/2'
  5  'z, x, y'
  6  'z+1/2, -x+1/2, -y'
  7  '-z, x+1/2, -y+1/2'
  8  '-z+1/2, -x, y+1/2'
  9  'y, z, x'
  10  '-y, z+1/2, -x+1/2'
  11  '-y+1/2, -z, x+1/2'
  12  'y+1/2, -z+1/2, -x'
loop_
 _atom_site_type_symbol
 _atom_site_label
 _atom_site_symmetry_multiplicity
 _atom_site_fract_x
 _atom_site_fract_y
 _atom_site_fract_z
 _atom_site_occupancy
  Bi  Bi0  4  0.13197600  0.63197600  0.86802400  1.0
  Te  Te1  4  0.12705300  0.87294700  0.37294700  1.0
  Pt  Pt2  4  0.00521000  0.00521000  0.00521000  1.0
