# generated using pymatgen
data_BiPd
_symmetry_space_group_name_H-M   Cmc2_1
_cell_length_a   5.76524489
_cell_length_b   5.76524489
_cell_length_c   10.79936800
_cell_angle_alpha   90.00000000
_cell_angle_beta   90.00000000
_cell_angle_gamma   101.54178363
_symmetry_Int_Tables_number   36
_chemical_formula_structural   BiPd
_chemical_formula_sum   'Bi8 Pd8'
_cell_volume   351.69161146
_cell_formula_units_Z   8
loop_
 _symmetry_equiv_pos_site_id
 _symmetry_equiv_pos_as_xyz
  1  'x, y, z'
  2  '-x, -y, z+1/2'
  3  'y, x, z'
  4  '-y, -x, z+1/2'
loop_
 _atom_site_type_symbol
 _atom_site_label
 _atom_site_symmetry_multiplicity
 _atom_site_fract_x
 _atom_site_fract_y
 _atom_site_fract_z
 _atom_site_occupancy
  Bi  Bi0  4  0.14657000  0.60749200  0.22073000  1.0
  Bi  Bi1  2  0.12272500  0.12272500  0.00633700  1.0
  Bi  Bi2  2  0.36703300  0.36703300  0.50131800  1.0
  Pd  Pd3  4  0.13206000  0.62325400  0.94400300  1.0
  Pd  Pd4  2  0.09063200  0.09063200  0.27888000  1.0
  Pd  Pd5  2  0.33218300  0.33218300  0.77200000  1.0
