# generated using pymatgen
data_BiS3
_symmetry_space_group_name_H-M   P6_3/mmc
_cell_length_a   3.91928400
_cell_length_b   7.07986400
_cell_length_c   7.07986480
_cell_angle_alpha   119.99999627
_cell_angle_beta   90.00000000
_cell_angle_gamma   90.00000000
_symmetry_Int_Tables_number   194
_chemical_formula_structural   BiS3
_chemical_formula_sum   'Bi2 S6'
_cell_volume   170.13249152
_cell_formula_units_Z   2
loop_
 _symmetry_equiv_pos_site_id
 _symmetry_equiv_pos_as_xyz
  1  'x, y, z'
  2  '-x, -y, -z'
  3  'x+1/2, y-z, y'
  4  '-x+1/2, -y+z, -y'
  5  'x, -z, y-z'
  6  '-x, z, -y+z'
  7  'x+1/2, -y, -z'
  8  '-x+1/2, y, z'
  9  'x, -y+z, -y'
  10  '-x, y-z, y'
  11  'x+1/2, z, -y+z'
  12  '-x+1/2, -z, y-z'
  13  '-x+1/2, y, y-z'
  14  'x+1/2, -y, -y+z'
  15  '-x, y-z, -z'
  16  'x, -y+z, z'
  17  '-x+1/2, -z, -y'
  18  'x+1/2, z, y'
  19  '-x, -y, -y+z'
  20  'x, y, y-z'
  21  '-x+1/2, -y+z, z'
  22  'x+1/2, y-z, -z'
  23  '-x, z, y'
  24  'x, -z, -y'
loop_
 _atom_site_type_symbol
 _atom_site_label
 _atom_site_symmetry_multiplicity
 _atom_site_fract_x
 _atom_site_fract_y
 _atom_site_fract_z
 _atom_site_occupancy
  Bi  Bi0  2  0.25000000  0.66666667  0.33333333  1.0
  S  S1  6  0.25000000  0.16048900  0.83951000  1.0
