# generated using pymatgen
data_BiS
_symmetry_space_group_name_H-M   Amm2
_cell_length_a   5.65361400
_cell_length_b   12.22808424
_cell_length_c   15.24353000
_cell_angle_alpha   90.00000000
_cell_angle_beta   90.00000000
_cell_angle_gamma   103.36616064
_symmetry_Int_Tables_number   38
_chemical_formula_structural   BiS
_chemical_formula_sum   'Bi10 S10'
_cell_volume   1025.28344459
_cell_formula_units_Z   10
loop_
 _symmetry_equiv_pos_site_id
 _symmetry_equiv_pos_as_xyz
  1  'x, y, z'
  2  'x-y, -y, -z'
  3  'x, y, -z'
  4  'x-y, -y, z'
loop_
 _atom_site_type_symbol
 _atom_site_label
 _atom_site_symmetry_multiplicity
 _atom_site_fract_x
 _atom_site_fract_y
 _atom_site_fract_z
 _atom_site_occupancy
  Bi  Bi0  4  0.20938000  0.36827000  0.10005000  1.0
  Bi  Bi1  4  0.33232400  0.62820300  0.30149300  1.0
  Bi  Bi2  2  0.20077900  0.37094800  0.50000000  1.0
  S  S3  4  0.21058900  0.39580700  0.31544800  1.0
  S  S4  4  0.32678900  0.60270500  0.12278300  1.0
  S  S5  2  0.32421300  0.60739400  0.50000000  1.0
