# generated using pymatgen
data_Zr3Bi
_symmetry_space_group_name_H-M   I-4
_cell_length_a   5.87551500
_cell_length_b   8.67222168
_cell_length_c   8.67222134
_cell_angle_alpha   83.41051290
_cell_angle_beta   70.19896932
_cell_angle_gamma   70.19896311
_symmetry_Int_Tables_number   82
_chemical_formula_structural   Zr3Bi
_chemical_formula_sum   'Zr12 Bi4'
_cell_volume   391.17420206
_cell_formula_units_Z   4
loop_
 _symmetry_equiv_pos_site_id
 _symmetry_equiv_pos_as_xyz
  1  'x, y, z'
  2  '-x-y, -z, y'
  3  'x+y+z, -y, -z'
  4  '-x-z, z, -y'
loop_
 _atom_site_type_symbol
 _atom_site_label
 _atom_site_symmetry_multiplicity
 _atom_site_fract_x
 _atom_site_fract_y
 _atom_site_fract_z
 _atom_site_occupancy
  Zr  Zr0  4  0.05369900  0.02858300  0.39923300  1.0
  Zr  Zr1  4  0.17836800  0.37906000  0.33012100  1.0
  Zr  Zr2  4  0.22015100  0.18528600  0.97324400  1.0
  Bi  Bi3  4  0.00114400  0.25458600  0.67683200  1.0
