# generated using pymatgen
data_Sr2Ca0.3Pr0.7Cu2Bi2O8
_symmetry_space_group_name_H-M   I4/mmm
_cell_length_a   3.83413600
_cell_length_b   3.83413600
_cell_length_c   15.61208617
_cell_angle_alpha   97.05337056
_cell_angle_beta   97.05337057
_cell_angle_gamma   89.99999996
_symmetry_Int_Tables_number   139
_chemical_formula_structural   Sr2Ca0.3Pr0.7Cu2Bi2O8
_chemical_formula_sum   'Sr2 Ca0.3 Pr0.7 Cu2 Bi2 O8'
_cell_volume   226.01994357
_cell_formula_units_Z   1
loop_
 _symmetry_equiv_pos_site_id
 _symmetry_equiv_pos_as_xyz
  1  'x, y, z'
  2  '-x, -y, -z'
  3  '-y+z, x, z'
  4  'y-z, -x, -z'
  5  '-x+z, -y+z, z'
  6  'x-z, y-z, -z'
  7  'y, -x+z, z'
  8  '-y, x-z, -z'
  9  'x-z, -y, -z'
  10  '-x+z, y, z'
  11  '-y, -x, -z'
  12  'y, x, z'
  13  '-x, y-z, -z'
  14  'x, -y+z, z'
  15  'y-z, x-z, -z'
  16  '-y+z, -x+z, z'
loop_
 _atom_site_type_symbol
 _atom_site_label
 _atom_site_symmetry_multiplicity
 _atom_site_fract_x
 _atom_site_fract_y
 _atom_site_fract_z
 _atom_site_occupancy
  Sr  Sr0  2  0.11559700  0.11559700  0.23119400  1.0
  Pr  Pr1  1  0.00000000  0.00000000  0.00000000  0.7
  Ca  Ca2  1  0.00000000  0.00000000  0.00000000  0.3
  Cu  Cu3  2  0.44466200  0.44466200  0.88932400  1.0
  Bi  Bi4  2  0.29535700  0.29535700  0.59071400  1.0
  O  O5  4  0.05250300  0.55250300  0.10500600  1.0
  O  O6  2  0.20329400  0.20329400  0.40658800  1.0
  O  O7  2  0.36428100  0.36428100  0.72856200  1.0
