# generated using pymatgen
data_Sr2ErCu2(BiO4)2
_symmetry_space_group_name_H-M   I4/mmm
_cell_length_a   3.78043000
_cell_length_b   3.78043000
_cell_length_c   15.46020447
_cell_angle_alpha   97.02273981
_cell_angle_beta   97.02273981
_cell_angle_gamma   90.00000000
_symmetry_Int_Tables_number   139
_chemical_formula_structural   Sr2ErCu2(BiO4)2
_chemical_formula_sum   'Sr2 Er1 Cu2 Bi2 O8'
_cell_volume   217.62392880
_cell_formula_units_Z   1
loop_
 _symmetry_equiv_pos_site_id
 _symmetry_equiv_pos_as_xyz
  1  'x, y, z'
  2  '-x, -y, -z'
  3  '-y+z, x, z'
  4  'y-z, -x, -z'
  5  '-x+z, -y+z, z'
  6  'x-z, y-z, -z'
  7  'y, -x+z, z'
  8  '-y, x-z, -z'
  9  'x-z, -y, -z'
  10  '-x+z, y, z'
  11  '-y, -x, -z'
  12  'y, x, z'
  13  '-x, y-z, -z'
  14  'x, -y+z, z'
  15  'y-z, x-z, -z'
  16  '-y+z, -x+z, z'
loop_
 _atom_site_type_symbol
 _atom_site_label
 _atom_site_symmetry_multiplicity
 _atom_site_fract_x
 _atom_site_fract_y
 _atom_site_fract_z
 _atom_site_occupancy
  Sr  Sr0  2  0.11459500  0.11459500  0.22919000  1.0
  Er  Er1  1  0.00000000  0.00000000  0.00000000  1.0
  Cu  Cu2  2  0.44780400  0.44780400  0.89560800  1.0
  Bi  Bi3  2  0.29557300  0.29557300  0.59114600  1.0
  O  O4  4  0.04781200  0.54781200  0.09562400  1.0
  O  O5  2  0.20246100  0.20246100  0.40492200  1.0
  O  O6  2  0.36546800  0.36546800  0.73093600  1.0
