# generated using pymatgen
data_Sr3.89768575Ca1.94884287Cu3.89768575Bi3.89768575I1.90986602O16
_symmetry_space_group_name_H-M   Pmna
_cell_length_a   5.21493000
_cell_length_b   5.48161500
_cell_length_c   19.12035300
_cell_angle_alpha   90.00000000
_cell_angle_beta   90.00000000
_cell_angle_gamma   90.00000000
_symmetry_Int_Tables_number   53
_chemical_formula_structural
Sr3.89768575Ca1.94884287Cu3.89768575Bi3.89768575I1.90986602O16
_chemical_formula_sum
'Sr3.89768575 Ca1.94884287 Cu3.89768575 Bi3.89768575 I1.90986602 O16'
_cell_volume   546.57897129
_cell_formula_units_Z   1
loop_
 _symmetry_equiv_pos_site_id
 _symmetry_equiv_pos_as_xyz
  1  'x, y, z'
  2  '-x, -y, -z'
  3  '-x+1/2, y+1/2, -z'
  4  'x+1/2, -y+1/2, z'
  5  'x, -y, -z'
  6  '-x, y, z'
  7  '-x+1/2, -y+1/2, z'
  8  'x+1/2, y+1/2, -z'
loop_
 _atom_site_type_symbol
 _atom_site_label
 _atom_site_symmetry_multiplicity
 _atom_site_fract_x
 _atom_site_fract_y
 _atom_site_fract_z
 _atom_site_occupancy
  Sr  Sr0  4  0.00000000  0.49614400  0.68212200  0.974421437275
  Ca  Ca1  2  0.00000000  0.50000000  0.50000000  0.97442143725
  Cu  Cu2  4  0.00000000  0.00013600  0.41639400  0.974421437275
  Bi  Bi3  4  0.00000000  0.03276500  0.16950900  0.974421437275
  I  I4  2  0.00000000  0.50000000  0.00000000  0.95493300855
  O  O5  4  0.00000000  0.01972900  0.72200200  1.0
  O  O6  4  0.00000000  0.42029700  0.18357600  1.0
  O  O7  4  0.25000000  0.25000000  0.41578100  1.0
  O  O8  4  0.25000000  0.25000000  0.58280600  1.0
