# generated using pymatgen
data_Sr4Ca1.4Y0.6Cu4Bi4I2O16
_symmetry_space_group_name_H-M   Pmna
_cell_length_a   5.21493000
_cell_length_b   5.48161500
_cell_length_c   19.12035300
_cell_angle_alpha   90.00000000
_cell_angle_beta   90.00000000
_cell_angle_gamma   90.00000000
_symmetry_Int_Tables_number   53
_chemical_formula_structural   Sr4Ca1.4Y0.6Cu4Bi4I2O16
_chemical_formula_sum   'Sr4 Ca1.4 Y0.6 Cu4 Bi4 I2 O16'
_cell_volume   546.57897129
_cell_formula_units_Z   1
loop_
 _symmetry_equiv_pos_site_id
 _symmetry_equiv_pos_as_xyz
  1  'x, y, z'
  2  '-x, -y, -z'
  3  '-x+1/2, y+1/2, -z'
  4  'x+1/2, -y+1/2, z'
  5  'x, -y, -z'
  6  '-x, y, z'
  7  '-x+1/2, -y+1/2, z'
  8  'x+1/2, y+1/2, -z'
loop_
 _atom_site_type_symbol
 _atom_site_label
 _atom_site_symmetry_multiplicity
 _atom_site_fract_x
 _atom_site_fract_y
 _atom_site_fract_z
 _atom_site_occupancy
  Sr  Sr0  4  0.00000000  0.49614400  0.68212200  1.0
  Ca  Ca1  2  0.00000000  0.50000000  0.50000000  0.7
  Y  Y2  2  0.00000000  0.50000000  0.50000000  0.3
  Cu  Cu3  4  0.00000000  0.00013600  0.41639400  1.0
  Bi  Bi4  4  0.00000000  0.03276500  0.16950900  1.0
  I  I5  2  0.00000000  0.50000000  0.00000000  1.0
  O  O6  4  0.00000000  0.01972900  0.72200200  1.0
  O  O7  4  0.00000000  0.42029700  0.18357600  1.0
  O  O8  4  0.25000000  0.25000000  0.41578100  1.0
  O  O9  4  0.25000000  0.25000000  0.58280600  1.0
