# generated using pymatgen
data_Sr3.88663968Cu1.94331984Bi3.88663968O12
_symmetry_space_group_name_H-M   Cccm
_cell_length_a   5.13305200
_cell_length_b   5.52519600
_cell_length_c   13.01880065
_cell_angle_alpha   102.25134739
_cell_angle_beta   90.00000000
_cell_angle_gamma   90.00000000
_symmetry_Int_Tables_number   66
_chemical_formula_structural
Sr3.88663968Cu1.94331984Bi3.88663968O12
_chemical_formula_sum   'Sr3.88663968 Cu1.94331984 Bi3.88663968 O12'
_cell_volume   360.81899671
_cell_formula_units_Z   1
loop_
 _symmetry_equiv_pos_site_id
 _symmetry_equiv_pos_as_xyz
  1  'x, y, z'
  2  '-x, -y, -z'
  3  'x, -y, -z'
  4  '-x, y, z'
  5  '-x+1/2, y-z, -z'
  6  'x+1/2, -y+z, z'
  7  '-x+1/2, -y+z, z'
  8  'x+1/2, y-z, -z'
loop_
 _atom_site_type_symbol
 _atom_site_label
 _atom_site_symmetry_multiplicity
 _atom_site_fract_x
 _atom_site_fract_y
 _atom_site_fract_z
 _atom_site_occupancy
  Sr  Sr0  4  0.00000000  0.06646400  0.64111500  0.971659919025
  Cu  Cu1  2  0.00000000  0.50000000  0.50000000  0.97165991905
  Bi  Bi2  4  0.00000000  0.33729600  0.12772000  0.971659919025
  O  O3  4  0.00000000  0.26972200  0.86899300  1.0
  O  O4  4  0.00000000  0.37572400  0.28893300  1.0
  O  O5  4  0.25000000  0.25183600  0.50367200  1.0
