# generated using pymatgen
data_Cu(BiO2)2
_symmetry_space_group_name_H-M   P4/ncc
_cell_length_a   6.04207200
_cell_length_b   8.49117400
_cell_length_c   8.49117400
_cell_angle_alpha   90.00000000
_cell_angle_beta   90.00000000
_cell_angle_gamma   90.00000000
_symmetry_Int_Tables_number   130
_chemical_formula_structural   Cu(BiO2)2
_chemical_formula_sum   'Cu4 Bi8 O16'
_cell_volume   435.63360810
_cell_formula_units_Z   4
loop_
 _symmetry_equiv_pos_site_id
 _symmetry_equiv_pos_as_xyz
  1  'x, y, z'
  2  'x, -z+1/2, y+1/2'
  3  'x, -y, -z'
  4  'x, z+1/2, -y+1/2'
  5  '-x+1/2, y+1/2, -z+1/2'
  6  '-x+1/2, -z, -y'
  7  '-x+1/2, -y+1/2, z+1/2'
  8  '-x+1/2, z, y'
  9  '-x, -y+1/2, -z+1/2'
  10  '-x, z, -y'
  11  '-x, y+1/2, z+1/2'
  12  '-x, -z, y'
  13  'x+1/2, -y, z'
  14  'x+1/2, z+1/2, y+1/2'
  15  'x+1/2, y, -z'
  16  'x+1/2, -z+1/2, -y+1/2'
loop_
 _atom_site_type_symbol
 _atom_site_label
 _atom_site_symmetry_multiplicity
 _atom_site_fract_x
 _atom_site_fract_y
 _atom_site_fract_z
 _atom_site_occupancy
  Cu  Cu0  4  0.07543700  0.00000000  0.50000000  1.0
  Bi  Bi1  8  0.25000000  0.17020500  0.82979500  1.0
  O  O2  16  0.08862400  0.09938000  0.29210900  1.0
