# generated using pymatgen
data_Sr1.88014101Y0.94007051Cu1.88014101Bi1.88014101O8
_symmetry_space_group_name_H-M   I4/mmm
_cell_length_a   3.80121200
_cell_length_b   3.80121200
_cell_length_c   15.59964188
_cell_angle_alpha   96.99810494
_cell_angle_beta   96.99810495
_cell_angle_gamma   89.99999997
_symmetry_Int_Tables_number   139
_chemical_formula_structural
Sr1.88014101Y0.94007051Cu1.88014101Bi1.88014101O8
_chemical_formula_sum
'Sr1.88014101 Y0.94007051 Cu1.88014101 Bi1.88014101 O8'
_cell_volume   222.03142784
_cell_formula_units_Z   1
loop_
 _symmetry_equiv_pos_site_id
 _symmetry_equiv_pos_as_xyz
  1  'x, y, z'
  2  '-x, -y, -z'
  3  '-y+z, x, z'
  4  'y-z, -x, -z'
  5  '-x+z, -y+z, z'
  6  'x-z, y-z, -z'
  7  'y, -x+z, z'
  8  '-y, x-z, -z'
  9  'x-z, -y, -z'
  10  '-x+z, y, z'
  11  '-y, -x, -z'
  12  'y, x, z'
  13  '-x, y-z, -z'
  14  'x, -y+z, z'
  15  'y-z, x-z, -z'
  16  '-y+z, -x+z, z'
loop_
 _atom_site_type_symbol
 _atom_site_label
 _atom_site_symmetry_multiplicity
 _atom_site_fract_x
 _atom_site_fract_y
 _atom_site_fract_z
 _atom_site_occupancy
  Sr  Sr0  2  0.11349500  0.11349500  0.22699000  0.9400705053
  Y  Y1  1  0.00000000  0.00000000  0.00000000  0.9400705053
  Cu  Cu2  2  0.44868800  0.44868800  0.89737600  0.9400705053
  Bi  Bi3  2  0.29710500  0.29710500  0.59421000  0.9400705053
  O  O4  4  0.04833000  0.54833000  0.09666000  1.0
  O  O5  2  0.20112700  0.20112700  0.40225400  1.0
  O  O6  2  0.36604900  0.36604900  0.73209800  1.0
