# generated using pymatgen
data_Sr2YCu2(BiO4)2
_symmetry_space_group_name_H-M   Cccm
_cell_length_a   5.35020500
_cell_length_b   5.50588600
_cell_length_c   15.59802851
_cell_angle_alpha   100.16555377
_cell_angle_beta   90.00000000
_cell_angle_gamma   90.00000000
_symmetry_Int_Tables_number   66
_chemical_formula_structural   Sr2YCu2(BiO4)2
_chemical_formula_sum   'Sr4 Y2 Cu4 Bi4 O16'
_cell_volume   452.26779978
_cell_formula_units_Z   2
loop_
 _symmetry_equiv_pos_site_id
 _symmetry_equiv_pos_as_xyz
  1  'x, y, z'
  2  '-x, -y, -z'
  3  'x, -y, -z'
  4  '-x, y, z'
  5  '-x+1/2, y-z, -z'
  6  'x+1/2, -y+z, z'
  7  '-x+1/2, -y+z, z'
  8  'x+1/2, y-z, -z'
loop_
 _atom_site_type_symbol
 _atom_site_label
 _atom_site_symmetry_multiplicity
 _atom_site_fract_x
 _atom_site_fract_y
 _atom_site_fract_z
 _atom_site_occupancy
  Sr  Sr0  4  0.00000000  0.38639300  0.27651500  1.0
  Y  Y1  2  0.00000000  0.50000000  0.50000000  1.0
  Cu  Cu2  4  0.00000000  0.05098700  0.60187600  1.0
  Bi  Bi3  4  0.00000000  0.22380500  0.90387800  1.0
  O  O4  4  0.00000000  0.12189400  0.76759000  1.0
  O  O5  4  0.00000000  0.38603400  0.10135600  1.0
  O  O6  4  0.25000000  0.20181700  0.40363400  1.0
  O  O7  4  0.25000000  0.29850800  0.59701600  1.0
