# generated using pymatgen
data_Bi2Ir
_symmetry_space_group_name_H-M   P2_1/c
_cell_length_a   6.89695100
_cell_length_b   7.01564200
_cell_length_c   7.08323759
_cell_angle_alpha   115.94724642
_cell_angle_beta   90.00000000
_cell_angle_gamma   90.00000000
_symmetry_Int_Tables_number   14
_chemical_formula_structural   Bi2Ir
_chemical_formula_sum   'Bi8 Ir4'
_cell_volume   308.18489983
_cell_formula_units_Z   4
loop_
 _symmetry_equiv_pos_site_id
 _symmetry_equiv_pos_as_xyz
  1  'x, y, z'
  2  '-x, -y, -z'
  3  'x+1/2, -y, -z+1/2'
  4  '-x+1/2, y, z+1/2'
loop_
 _atom_site_type_symbol
 _atom_site_label
 _atom_site_symmetry_multiplicity
 _atom_site_fract_x
 _atom_site_fract_y
 _atom_site_fract_z
 _atom_site_occupancy
  Bi  Bi0  4  0.13630100  0.14540000  0.87425100  1.0
  Bi  Bi1  4  0.14189700  0.65321600  0.32918500  1.0
  Ir  Ir2  4  0.00300600  0.27086000  0.28605100  1.0
