# generated using pymatgen
data_K3Bi2
_symmetry_space_group_name_H-M   C2/c
_cell_length_a   6.85963066
_cell_length_b   6.85963066
_cell_length_c   9.55412348
_cell_angle_alpha   101.11945255
_cell_angle_beta   101.11945255
_cell_angle_gamma   92.09468540
_symmetry_Int_Tables_number   15
_chemical_formula_structural   K3Bi2
_chemical_formula_sum   'K6 Bi4'
_cell_volume   431.57261012
_cell_formula_units_Z   2
loop_
 _symmetry_equiv_pos_site_id
 _symmetry_equiv_pos_as_xyz
  1  'x, y, z'
  2  '-x, -y, -z'
  3  '-y, -x, -z+1/2'
  4  'y, x, z+1/2'
loop_
 _atom_site_type_symbol
 _atom_site_label
 _atom_site_symmetry_multiplicity
 _atom_site_fract_x
 _atom_site_fract_y
 _atom_site_fract_z
 _atom_site_occupancy
  K  K0  4  0.23979300  0.34544600  0.02079900  1.0
  K  K1  2  0.16382100  0.83617900  0.75000000  1.0
  Bi  Bi2  4  0.11159800  0.68598300  0.34665600  1.0
