# generated using pymatgen
data_Mg3Bi2
_symmetry_space_group_name_H-M   Cmcm
_cell_length_a   5.53833000
_cell_length_b   5.63004296
_cell_length_c   5.63004296
_cell_angle_alpha   117.25339760
_cell_angle_beta   90.00000000
_cell_angle_gamma   90.00000000
_symmetry_Int_Tables_number   63
_chemical_formula_structural   Mg3Bi2
_chemical_formula_sum   'Mg3 Bi2'
_cell_volume   156.06270028
_cell_formula_units_Z   1
loop_
 _symmetry_equiv_pos_site_id
 _symmetry_equiv_pos_as_xyz
  1  'x, y, z'
  2  '-x, -y, -z'
  3  'x+1/2, -y, -z'
  4  '-x+1/2, y, z'
  5  '-x, -z, -y'
  6  'x, z, y'
  7  '-x+1/2, z, y'
  8  'x+1/2, -z, -y'
loop_
 _atom_site_type_symbol
 _atom_site_label
 _atom_site_symmetry_multiplicity
 _atom_site_fract_x
 _atom_site_fract_y
 _atom_site_fract_z
 _atom_site_occupancy
  Mg  Mg0  4  0.25000000  0.00270600  0.33510800  0.75
  Bi  Bi1  2  0.25000000  0.67954100  0.67954100  1.0
