# generated using pymatgen
data_Ni3(BiSe)2
_symmetry_space_group_name_H-M   C2/m
_cell_length_a   6.97450621
_cell_length_b   6.97450621
_cell_length_c   7.22519939
_cell_angle_alpha   109.04840438
_cell_angle_beta   110.12932366
_cell_angle_gamma   107.78175188
_symmetry_Int_Tables_number   12
_chemical_formula_structural   Ni3(BiSe)2
_chemical_formula_sum   'Ni6 Bi4 Se4'
_cell_volume   275.21573299
_cell_formula_units_Z   2
loop_
 _symmetry_equiv_pos_site_id
 _symmetry_equiv_pos_as_xyz
  1  'x, y, z'
  2  '-x, -y, -z'
  3  'y-z, x-z, -z'
  4  '-y+z, -x+z, z'
loop_
 _atom_site_type_symbol
 _atom_site_label
 _atom_site_symmetry_multiplicity
 _atom_site_fract_x
 _atom_site_fract_y
 _atom_site_fract_z
 _atom_site_occupancy
  Ni  Ni0  2  0.00000000  0.00000000  0.50000000  1.0
  Ni  Ni1  2  0.22697100  0.72697100  0.50000000  1.0
  Ni  Ni2  2  0.22841500  0.98312000  0.21153500  1.0
  Bi  Bi3  2  0.00663300  0.25067900  0.25731200  1.0
  Bi  Bi4  2  0.48356000  0.21577500  0.69933500  1.0
  Se  Se5  4  0.06279800  0.30655800  0.80713900  1.0
