# generated using pymatgen
data_Ni3(BiS)2
_symmetry_space_group_name_H-M   R-3m
_cell_length_a   5.54970510
_cell_length_b   5.54970510
_cell_length_c   5.54970467
_cell_angle_alpha   63.23129321
_cell_angle_beta   63.23129321
_cell_angle_gamma   63.23129383
_symmetry_Int_Tables_number   166
_chemical_formula_structural   Ni3(BiS)2
_chemical_formula_sum   'Ni3 Bi2 S2'
_cell_volume   129.51803783
_cell_formula_units_Z   1
loop_
 _symmetry_equiv_pos_site_id
 _symmetry_equiv_pos_as_xyz
  1  'x, y, z'
  2  '-x, -y, -z'
  3  'z, x, y'
  4  '-z, -x, -y'
  5  'y, z, x'
  6  '-y, -z, -x'
  7  '-z, -y, -x'
  8  'z, y, x'
  9  '-y, -x, -z'
  10  'y, x, z'
  11  '-x, -z, -y'
  12  'x, z, y'
loop_
 _atom_site_type_symbol
 _atom_site_label
 _atom_site_symmetry_multiplicity
 _atom_site_fract_x
 _atom_site_fract_y
 _atom_site_fract_z
 _atom_site_occupancy
  Ni  Ni0  3  0.00000000  0.00000000  0.50000000  1.0
  Bi  Bi1  1  0.00000000  0.00000000  0.00000000  1.0
  Bi  Bi2  1  0.50000000  0.50000000  0.50000000  1.0
  S  S3  2  0.27169700  0.27169700  0.27169700  1.0
