# generated using pymatgen
data_Ni3(BiS)2
_symmetry_space_group_name_H-M   C2/m
_cell_length_a   6.85483593
_cell_length_b   6.85483593
_cell_length_c   7.05508475
_cell_angle_alpha   109.17001525
_cell_angle_beta   111.25981055
_cell_angle_gamma   106.78881146
_symmetry_Int_Tables_number   12
_chemical_formula_structural   Ni3(BiS)2
_chemical_formula_sum   'Ni6 Bi4 S4'
_cell_volume   258.59451168
_cell_formula_units_Z   2
loop_
 _symmetry_equiv_pos_site_id
 _symmetry_equiv_pos_as_xyz
  1  'x, y, z'
  2  '-x, -y, -z'
  3  'y-z, x-z, -z'
  4  '-y+z, -x+z, z'
loop_
 _atom_site_type_symbol
 _atom_site_label
 _atom_site_symmetry_multiplicity
 _atom_site_fract_x
 _atom_site_fract_y
 _atom_site_fract_z
 _atom_site_occupancy
  Ni  Ni0  2  0.00000000  0.50000000  0.00000000  1.0
  Ni  Ni1  2  0.01485700  0.25478700  0.26964400  1.0
  Ni  Ni2  2  0.25481300  0.25481300  0.00000000  1.0
  Bi  Bi3  2  0.25050600  0.50157900  0.75208500  1.0
  Bi  Bi4  2  0.25205800  0.98797700  0.24003500  1.0
  S  S5  4  0.24082100  0.99850000  0.70752300  1.0
