# generated using pymatgen
data_Bi2Pd3S2
_symmetry_space_group_name_H-M   I2_13
_cell_length_a   7.32269339
_cell_length_b   7.32269339
_cell_length_c   7.32269339
_cell_angle_alpha   109.47122063
_cell_angle_beta   109.47122064
_cell_angle_gamma   109.47122064
_symmetry_Int_Tables_number   199
_chemical_formula_structural   Bi2Pd3S2
_chemical_formula_sum   'Bi4 Pd6 S4'
_cell_volume   302.26694697
_cell_formula_units_Z   2
loop_
 _symmetry_equiv_pos_site_id
 _symmetry_equiv_pos_as_xyz
  1  'x, y, z'
  2  'y-z+1/2, x-z, -z+1/2'
  3  '-y+z, -y+1/2, x-y+1/2'
  4  '-x+1/2, -x+z+1/2, -x+y'
  5  '-y+1/2, x-y, -y+z+1/2'
  6  '-x+z+1/2, -x+y+1/2, -x'
  7  'y, z+1/2, x+1/2'
  8  'x-z, -z, y-z'
  9  '-x+y+1/2, -x+1/2, -x+z'
  10  'x-y, -y+z, -y'
  11  '-z, y-z+1/2, x-z+1/2'
  12  'z+1/2, x, y+1/2'
loop_
 _atom_site_type_symbol
 _atom_site_label
 _atom_site_symmetry_multiplicity
 _atom_site_fract_x
 _atom_site_fract_y
 _atom_site_fract_z
 _atom_site_occupancy
  Bi  Bi0  4  0.00000000  0.50000000  0.00741200  1.0
  Pd  Pd1  6  0.02917500  0.25000000  0.27917500  1.0
  S  S2  4  0.00000000  0.50000000  0.55396800  1.0
