# generated using pymatgen
data_Bi2Pt
_symmetry_space_group_name_H-M   P31m
_cell_length_a   6.32121900
_cell_length_b   6.65109800
_cell_length_c   6.65109815
_cell_angle_alpha   60.00000073
_cell_angle_beta   90.00000000
_cell_angle_gamma   90.00000000
_symmetry_Int_Tables_number   157
_chemical_formula_structural   Bi2Pt
_chemical_formula_sum   'Bi6 Pt3'
_cell_volume   242.16879200
_cell_formula_units_Z   3
loop_
 _symmetry_equiv_pos_site_id
 _symmetry_equiv_pos_as_xyz
  1  'x, y, z'
  2  'x, -y-z, y'
  3  'x, z, -y-z'
  4  'x, -y, y+z'
  5  'x, y+z, -z'
  6  'x, -z, -y'
loop_
 _atom_site_type_symbol
 _atom_site_label
 _atom_site_symmetry_multiplicity
 _atom_site_fract_x
 _atom_site_fract_y
 _atom_site_fract_z
 _atom_site_occupancy
  Bi  Bi0  3  0.26929600  0.00000000  0.39054800  1.0
  Bi  Bi1  2  0.78702400  0.33333333  0.33333333  1.0
  Bi  Bi2  1  0.66050300  0.00000000  0.00000000  1.0
  Pt  Pt3  3  0.99975300  0.00000000  0.73722800  1.0
