# generated using pymatgen
data_Bi2Pd3Se2
_symmetry_space_group_name_H-M   C2/m
_cell_length_a   7.35229261
_cell_length_b   7.35229261
_cell_length_c   7.51796092
_cell_angle_alpha   109.87185271
_cell_angle_beta   108.97421198
_cell_angle_gamma   108.66015172
_symmetry_Int_Tables_number   12
_chemical_formula_structural   Bi2Pd3Se2
_chemical_formula_sum   'Bi4 Pd6 Se4'
_cell_volume   316.26732700
_cell_formula_units_Z   2
loop_
 _symmetry_equiv_pos_site_id
 _symmetry_equiv_pos_as_xyz
  1  'x, y, z'
  2  '-x, -y, -z'
  3  'y-z, x-z, -z'
  4  '-y+z, -x+z, z'
loop_
 _atom_site_type_symbol
 _atom_site_label
 _atom_site_symmetry_multiplicity
 _atom_site_fract_x
 _atom_site_fract_y
 _atom_site_fract_z
 _atom_site_occupancy
  Bi  Bi0  2  0.21499200  0.48165500  0.69664700  1.0
  Bi  Bi1  2  0.25060900  0.00827800  0.25888700  1.0
  Pd  Pd2  2  0.00000000  0.00000000  0.50000000  1.0
  Pd  Pd3  2  0.02485900  0.77662300  0.80148200  1.0
  Pd  Pd4  2  0.27707200  0.77707200  0.50000000  1.0
  Se  Se5  4  0.25727200  0.50083100  0.17866400  1.0
