# generated using pymatgen
data_Bi2Pd3S2
_symmetry_space_group_name_H-M   C2/m
_cell_length_a   10.59661476
_cell_length_b   16.83701833
_cell_length_c   16.83701833
_cell_angle_alpha   88.65971662
_cell_angle_beta   72.01491081
_cell_angle_gamma   72.01491081
_symmetry_Int_Tables_number   12
_chemical_formula_structural   Bi2Pd3S2
_chemical_formula_sum   'Bi2 Pd3 S2'
_cell_volume   2708.97958619
_cell_formula_units_Z   1
loop_
 _symmetry_equiv_pos_site_id
 _symmetry_equiv_pos_as_xyz
  1  'x, y, z'
  2  '-x, -y, -z'
  3  '-x, -z, -y'
  4  'x, z, y'
loop_
 _atom_site_type_symbol
 _atom_site_label
 _atom_site_symmetry_multiplicity
 _atom_site_fract_x
 _atom_site_fract_y
 _atom_site_fract_z
 _atom_site_occupancy
  Bi  Bi0  1  0.00000000  0.00000000  0.00000000  1.0
  Bi  Bi1  1  0.50000000  0.00000000  0.00000000  1.0
  Pd  Pd2  2  0.50000000  0.00000000  0.50000000  1.0
  Pd  Pd3  1  0.50000000  0.50000000  0.50000000  1.0
  S  S4  2  0.29270000  0.56979000  0.56979000  1.0
