# generated using pymatgen
data_Bi2Pd
_symmetry_space_group_name_H-M   I4/mmm
_cell_length_a   3.43013000
_cell_length_b   3.43013000
_cell_length_c   6.93506592
_cell_angle_alpha   104.31799522
_cell_angle_beta   104.31799522
_cell_angle_gamma   90.00000000
_symmetry_Int_Tables_number   139
_chemical_formula_structural   Bi2Pd
_chemical_formula_sum   'Bi2 Pd1'
_cell_volume   76.44346716
_cell_formula_units_Z   1
loop_
 _symmetry_equiv_pos_site_id
 _symmetry_equiv_pos_as_xyz
  1  'x, y, z'
  2  '-x, -y, -z'
  3  '-y+z, x, z'
  4  'y-z, -x, -z'
  5  '-x+z, -y+z, z'
  6  'x-z, y-z, -z'
  7  'y, -x+z, z'
  8  '-y, x-z, -z'
  9  'x-z, -y, -z'
  10  '-x+z, y, z'
  11  '-y, -x, -z'
  12  'y, x, z'
  13  '-x, y-z, -z'
  14  'x, -y+z, z'
  15  'y-z, x-z, -z'
  16  '-y+z, -x+z, z'
loop_
 _atom_site_type_symbol
 _atom_site_label
 _atom_site_symmetry_multiplicity
 _atom_site_fract_x
 _atom_site_fract_y
 _atom_site_fract_z
 _atom_site_occupancy
  Bi  Bi0  2  0.36415300  0.36415300  0.72830600  1.0
  Pd  Pd1  1  0.00000000  0.00000000  0.00000000  1.0
