# generated using pymatgen
data_Bi2Pt
_symmetry_space_group_name_H-M   Pbca
_cell_length_a   6.87273400
_cell_length_b   6.92979000
_cell_length_c   13.61900900
_cell_angle_alpha   90.00000000
_cell_angle_beta   90.00000000
_cell_angle_gamma   90.00000000
_symmetry_Int_Tables_number   61
_chemical_formula_structural   Bi2Pt
_chemical_formula_sum   'Bi16 Pt8'
_cell_volume   648.62713961
_cell_formula_units_Z   8
loop_
 _symmetry_equiv_pos_site_id
 _symmetry_equiv_pos_as_xyz
  1  'x, y, z'
  2  '-x, -y, -z'
  3  '-x+1/2, -y, z+1/2'
  4  'x+1/2, y, -z+1/2'
  5  'x+1/2, -y+1/2, -z'
  6  '-x+1/2, y+1/2, z'
  7  '-x, y+1/2, -z+1/2'
  8  'x, -y+1/2, z+1/2'
loop_
 _atom_site_type_symbol
 _atom_site_label
 _atom_site_symmetry_multiplicity
 _atom_site_fract_x
 _atom_site_fract_y
 _atom_site_fract_z
 _atom_site_occupancy
  Bi  Bi0  8  0.12847300  0.03825200  0.18585600  1.0
  Bi  Bi1  8  0.13994100  0.69414600  0.93551100  1.0
  Pt  Pt2  8  0.00280500  0.66614300  0.12901800  1.0
