# generated using pymatgen
data_Bi2S
_symmetry_space_group_name_H-M   P2_1/c
_cell_length_a   4.16836723
_cell_length_b   7.52570374
_cell_length_c   11.88472500
_cell_angle_alpha   90.00000000
_cell_angle_beta   90.00000000
_cell_angle_gamma   104.76983081
_symmetry_Int_Tables_number   14
_chemical_formula_structural   Bi2S
_chemical_formula_sum   'Bi8 S4'
_cell_volume   360.50370362
_cell_formula_units_Z   4
loop_
 _symmetry_equiv_pos_site_id
 _symmetry_equiv_pos_as_xyz
  1  'x, y, z'
  2  '-x, -y, -z'
  3  '-x+1/2, -y, z+1/2'
  4  'x+1/2, y, -z+1/2'
loop_
 _atom_site_type_symbol
 _atom_site_label
 _atom_site_symmetry_multiplicity
 _atom_site_fract_x
 _atom_site_fract_y
 _atom_site_fract_z
 _atom_site_occupancy
  Bi  Bi0  4  0.03722900  0.00905400  0.15254900  1.0
  Bi  Bi1  4  0.20282800  0.37464800  0.37911000  1.0
  S  S2  4  0.17514300  0.34694400  0.60033800  1.0
