# generated using pymatgen
data_Bi2Se3
_symmetry_space_group_name_H-M   Pnma
_cell_length_a   4.16011500
_cell_length_b   11.62226900
_cell_length_c   12.53561900
_cell_angle_alpha   90.00000000
_cell_angle_beta   90.00000000
_cell_angle_gamma   90.00000000
_symmetry_Int_Tables_number   62
_chemical_formula_structural   Bi2Se3
_chemical_formula_sum   'Bi8 Se12'
_cell_volume   606.09687279
_cell_formula_units_Z   4
loop_
 _symmetry_equiv_pos_site_id
 _symmetry_equiv_pos_as_xyz
  1  'x, y, z'
  2  '-x, -y, -z'
  3  '-x, y+1/2, -z+1/2'
  4  'x, -y+1/2, z+1/2'
  5  '-x+1/2, -y+1/2, z+1/2'
  6  'x+1/2, y+1/2, -z+1/2'
  7  'x+1/2, -y, -z'
  8  '-x+1/2, y, z'
loop_
 _atom_site_type_symbol
 _atom_site_label
 _atom_site_symmetry_multiplicity
 _atom_site_fract_x
 _atom_site_fract_y
 _atom_site_fract_z
 _atom_site_occupancy
  Bi  Bi0  4  0.25000000  0.16955300  0.52169100  1.0
  Bi  Bi1  4  0.25000000  0.53808500  0.35129200  1.0
  Se  Se2  4  0.25000000  0.19490500  0.21195200  1.0
  Se  Se3  4  0.25000000  0.54840700  0.87397900  1.0
  Se  Se4  4  0.25000000  0.63520600  0.55107800  1.0
