# generated using pymatgen
data_Bi2S3
_symmetry_space_group_name_H-M   Pnma
_cell_length_a   4.02142100
_cell_length_b   11.17050300
_cell_length_c   11.73532500
_cell_angle_alpha   90.00000000
_cell_angle_beta   90.00000000
_cell_angle_gamma   90.00000000
_symmetry_Int_Tables_number   62
_chemical_formula_structural   Bi2S3
_chemical_formula_sum   'Bi8 S12'
_cell_volume   527.16600029
_cell_formula_units_Z   4
loop_
 _symmetry_equiv_pos_site_id
 _symmetry_equiv_pos_as_xyz
  1  'x, y, z'
  2  '-x, -y, -z'
  3  '-x, y+1/2, -z+1/2'
  4  'x, -y+1/2, z+1/2'
  5  '-x+1/2, -y+1/2, z+1/2'
  6  'x+1/2, y+1/2, -z+1/2'
  7  'x+1/2, -y, -z'
  8  '-x+1/2, y, z'
loop_
 _atom_site_type_symbol
 _atom_site_label
 _atom_site_symmetry_multiplicity
 _atom_site_fract_x
 _atom_site_fract_y
 _atom_site_fract_z
 _atom_site_occupancy
  Bi  Bi0  4  0.25000000  0.17355600  0.01760900  1.0
  Bi  Bi1  4  0.25000000  0.53222700  0.84377600  1.0
  S  S2  4  0.25000000  0.19083100  0.71081700  1.0
  S  S3  4  0.25000000  0.55474900  0.37842500  1.0
  S  S4  4  0.25000000  0.62964900  0.04757800  1.0
