# generated using pymatgen
data_Bi2S3
_symmetry_space_group_name_H-M   I-42d
_cell_length_a   6.71362800
_cell_length_b   6.89545514
_cell_length_c   6.71362800
_cell_angle_alpha   60.86851657
_cell_angle_beta   90.00000000
_cell_angle_gamma   119.13148343
_symmetry_Int_Tables_number   122
_chemical_formula_structural   Bi2S3
_chemical_formula_sum   'Bi2 S3'
_cell_volume   225.41313381
_cell_formula_units_Z   1
loop_
 _symmetry_equiv_pos_site_id
 _symmetry_equiv_pos_as_xyz
  1  'x, y, z'
  2  'z, -y, -x+y'
  3  '-x+y, y, -y-z'
  4  '-y-z, -y, x'
  5  '-x+3/4, -y+1/2, y+z+3/4'
  6  '-z+3/4, y+1/2, -x+3/4'
  7  'x-y+3/4, -y+1/2, -z+3/4'
  8  'y+z+3/4, y+1/2, x-y+3/4'
loop_
 _atom_site_type_symbol
 _atom_site_label
 _atom_site_symmetry_multiplicity
 _atom_site_fract_x
 _atom_site_fract_y
 _atom_site_fract_z
 _atom_site_occupancy
  Bi  Bi0  2  0.00000000  0.00000000  0.00000000  1.0
  S  S1  4  0.10887000  0.75000000  0.37500000  0.75
