# generated using pymatgen
data_ZrBi2
_symmetry_space_group_name_H-M   Pnnm
_cell_length_a   4.06119600
_cell_length_b   10.41295100
_cell_length_c   15.69211900
_cell_angle_alpha   90.00000000
_cell_angle_beta   90.00000000
_cell_angle_gamma   90.00000000
_symmetry_Int_Tables_number   58
_chemical_formula_structural   ZrBi2
_chemical_formula_sum   'Zr8 Bi16'
_cell_volume   663.60456882
_cell_formula_units_Z   8
loop_
 _symmetry_equiv_pos_site_id
 _symmetry_equiv_pos_as_xyz
  1  'x, y, z'
  2  '-x, -y, -z'
  3  'x, -y, -z'
  4  '-x, y, z'
  5  '-x+1/2, y+1/2, -z+1/2'
  6  'x+1/2, -y+1/2, z+1/2'
  7  '-x+1/2, -y+1/2, z+1/2'
  8  'x+1/2, y+1/2, -z+1/2'
loop_
 _atom_site_type_symbol
 _atom_site_label
 _atom_site_symmetry_multiplicity
 _atom_site_fract_x
 _atom_site_fract_y
 _atom_site_fract_z
 _atom_site_occupancy
  Zr  Zr0  4  0.00000000  0.02287300  0.24861700  1.0
  Zr  Zr1  4  0.00000000  0.16301900  0.50619000  1.0
  Bi  Bi2  4  0.00000000  0.12312600  0.05705300  1.0
  Bi  Bi3  4  0.00000000  0.26498200  0.70008100  1.0
  Bi  Bi4  4  0.00000000  0.34630300  0.34980700  1.0
  Bi  Bi5  4  0.00000000  0.48707700  0.89407900  1.0
