# generated using pymatgen
data_In1.66666667Bi1
_symmetry_space_group_name_H-M   Fmmm
_cell_length_a   3.34286013
_cell_length_b   3.34286013
_cell_length_c   8.47995476
_cell_angle_alpha   99.83837433
_cell_angle_beta   99.83837441
_cell_angle_gamma   97.64868161
_symmetry_Int_Tables_number   69
_chemical_formula_structural   In1.66666667Bi1
_chemical_formula_sum   'In1.66666667 Bi1'
_cell_volume   90.69976088
_cell_formula_units_Z   1
loop_
 _symmetry_equiv_pos_site_id
 _symmetry_equiv_pos_as_xyz
  1  'x, y, z'
  2  '-x, -y, -z'
  3  '-x+z, -y+z, z'
  4  'x-z, y-z, -z'
  5  'y-z, x-z, -z'
  6  '-y+z, -x+z, z'
  7  '-y, -x, -z'
  8  'y, x, z'
loop_
 _atom_site_type_symbol
 _atom_site_label
 _atom_site_symmetry_multiplicity
 _atom_site_fract_x
 _atom_site_fract_y
 _atom_site_fract_z
 _atom_site_occupancy
  In  In0  2  0.33222100  0.33222100  0.66444200  0.83333333335
  Bi  Bi1  1  0.00000000  0.00000000  0.00000000  1.0
