# generated using pymatgen
data_Bi3Rh
_symmetry_space_group_name_H-M   Pnma
_cell_length_a   4.33119200
_cell_length_b   8.96464400
_cell_length_c   11.54035700
_cell_angle_alpha   90.00000000
_cell_angle_beta   90.00000000
_cell_angle_gamma   90.00000000
_symmetry_Int_Tables_number   62
_chemical_formula_structural   Bi3Rh
_chemical_formula_sum   'Bi12 Rh4'
_cell_volume   448.08430055
_cell_formula_units_Z   4
loop_
 _symmetry_equiv_pos_site_id
 _symmetry_equiv_pos_as_xyz
  1  'x, y, z'
  2  '-x, -y, -z'
  3  '-x, -y+1/2, z+1/2'
  4  'x, y+1/2, -z+1/2'
  5  '-x+1/2, y+1/2, -z+1/2'
  6  'x+1/2, -y+1/2, z+1/2'
  7  'x+1/2, -y, -z'
  8  '-x+1/2, y, z'
loop_
 _atom_site_type_symbol
 _atom_site_label
 _atom_site_symmetry_multiplicity
 _atom_site_fract_x
 _atom_site_fract_y
 _atom_site_fract_z
 _atom_site_occupancy
  Bi  Bi0  4  0.25000000  0.30292000  0.11342900  1.0
  Bi  Bi1  4  0.25000000  0.39957500  0.41048900  1.0
  Bi  Bi2  4  0.25000000  0.40303200  0.82289900  1.0
  Rh  Rh3  4  0.25000000  0.10196200  0.48036200  1.0
