# generated using pymatgen
data_ZnBi3
_symmetry_space_group_name_H-M   I4/mmm
_cell_length_a   5.04533600
_cell_length_b   5.79205026
_cell_length_c   5.04533600
_cell_angle_alpha   115.81964263
_cell_angle_beta   89.99999999
_cell_angle_gamma   115.81964264
_symmetry_Int_Tables_number   139
_chemical_formula_structural   ZnBi3
_chemical_formula_sum   'Zn1 Bi3'
_cell_volume   116.15074381
_cell_formula_units_Z   1
loop_
 _symmetry_equiv_pos_site_id
 _symmetry_equiv_pos_as_xyz
  1  'x, y, z'
  2  '-x, -y, -z'
  3  'y-z, y, x'
  4  '-y+z, -y, -x'
  5  '-x+y, y, y-z'
  6  'x-y, -y, -y+z'
  7  'z, y, -x+y'
  8  '-z, -y, x-y'
  9  'x-y, -y, -z'
  10  '-x+y, y, z'
  11  '-z, -y, -x'
  12  'z, y, x'
  13  '-x, -y, -y+z'
  14  'x, y, y-z'
  15  '-y+z, -y, x-y'
  16  'y-z, y, -x+y'
loop_
 _atom_site_type_symbol
 _atom_site_label
 _atom_site_symmetry_multiplicity
 _atom_site_fract_x
 _atom_site_fract_y
 _atom_site_fract_z
 _atom_site_occupancy
  Zn  Zn0  1  0.00000000  0.00000000  0.00000000  1.0
  Bi  Bi1  2  0.25000000  0.50000000  0.75000000  1.0
  Bi  Bi2  1  0.50000000  0.00000000  0.50000000  1.0
