# generated using pymatgen
data_Sr1.86697783Tm0.93348891Cu1.86697783Bi1.86697783O8
_symmetry_space_group_name_H-M   I4/mmm
_cell_length_a   3.76273400
_cell_length_b   3.76273400
_cell_length_c   15.41639261
_cell_angle_alpha   97.00966588
_cell_angle_beta   97.00966587
_cell_angle_gamma   90.00000003
_symmetry_Int_Tables_number   139
_chemical_formula_structural
Sr1.86697783Tm0.93348891Cu1.86697783Bi1.86697783O8
_chemical_formula_sum
'Sr1.86697783 Tm0.93348891 Cu1.86697783 Bi1.86697783 O8'
_cell_volume   214.99263187
_cell_formula_units_Z   1
loop_
 _symmetry_equiv_pos_site_id
 _symmetry_equiv_pos_as_xyz
  1  'x, y, z'
  2  '-x, -y, -z'
  3  '-y+z, x, z'
  4  'y-z, -x, -z'
  5  '-x+z, -y+z, z'
  6  'x-z, y-z, -z'
  7  'y, -x+z, z'
  8  '-y, x-z, -z'
  9  'x-z, -y, -z'
  10  '-x+z, y, z'
  11  '-y, -x, -z'
  12  'y, x, z'
  13  '-x, y-z, -z'
  14  'x, -y+z, z'
  15  'y-z, x-z, -z'
  16  '-y+z, -x+z, z'
loop_
 _atom_site_type_symbol
 _atom_site_label
 _atom_site_symmetry_multiplicity
 _atom_site_fract_x
 _atom_site_fract_y
 _atom_site_fract_z
 _atom_site_occupancy
  Sr  Sr0  2  0.11531100  0.11531100  0.23062200  0.9334889148
  Tm  Tm1  1  0.00000000  0.00000000  0.00000000  0.9334889148
  Cu  Cu2  2  0.44744900  0.44744900  0.89489800  0.9334889148
  Bi  Bi3  2  0.29466400  0.29466400  0.58932800  0.9334889148
  O  O4  4  0.04731900  0.54731900  0.09463800  1.0
  O  O5  2  0.20316900  0.20316900  0.40633800  1.0
  O  O6  2  0.36515800  0.36515800  0.73031600  1.0
