# generated using pymatgen
data_Bi4Rh
_symmetry_space_group_name_H-M   Ia-3d
_cell_length_a   13.15719660
_cell_length_b   13.15719660
_cell_length_c   13.15719660
_cell_angle_alpha   109.47122063
_cell_angle_beta   109.47122064
_cell_angle_gamma   109.47122064
_symmetry_Int_Tables_number   230
_chemical_formula_structural   Bi4Rh
_chemical_formula_sum   'Bi48 Rh12'
_cell_volume   1753.34832026
_cell_formula_units_Z   12
loop_
 _symmetry_equiv_pos_site_id
 _symmetry_equiv_pos_as_xyz
  1  'x, y, z'
  2  '-x, -y, -z'
  3  '-y+z, z+1/2, -x+z'
  4  'y-z, -z+1/2, x-z'
  5  '-x+1/2, -x+z+1/2, -x+y'
  6  'x+1/2, x-z+1/2, x-y'
  7  'y-z+1/2, -x+y+1/2, y+1/2'
  8  '-y+z+1/2, x-y+1/2, -y+1/2'
  9  '-y+z, -y+1/2, x-y+1/2'
  10  'y-z, y+1/2, -x+y+1/2'
  11  '-x+1/2, -z, -y'
  12  'x+1/2, z, y'
  13  'y-z+1/2, x-z, -z+1/2'
  14  '-y+z+1/2, -x+z, z+1/2'
  15  'x, x-y, x-z+1/2'
  16  '-x, -x+y, -x+z+1/2'
  17  'z+1/2, x, y+1/2'
  18  '-z+1/2, -x, -y+1/2'
  19  '-x+z+1/2, -y+z, z'
  20  'x-z+1/2, y-z, -z'
  21  '-x+y+1/2, -x+1/2, -x+z'
  22  'x-y+1/2, x+1/2, x-z'
  23  'y, y-z+1/2, -x+y'
  24  '-y, -y+z+1/2, x-y'
  25  'x-y, -y+z, -y'
  26  '-x+y, y-z, y'
  27  '-y+1/2, -x+1/2, -z+1/2'
  28  'y+1/2, x+1/2, z+1/2'
  29  '-z, y-z+1/2, x-z+1/2'
  30  'z, -y+z+1/2, -x+z+1/2'
  31  'x-z, x, x-y+1/2'
  32  '-x+z, -x, -x+y+1/2'
  33  'y, z+1/2, x+1/2'
  34  '-y, -z+1/2, -x+1/2'
  35  'z+1/2, -x+z+1/2, -y+z+1/2'
  36  '-z+1/2, x-z+1/2, y-z+1/2'
  37  '-x+z+1/2, -x+y+1/2, -x'
  38  'x-z+1/2, x-y+1/2, x'
  39  '-x+y+1/2, y, y-z'
  40  'x-y+1/2, -y, -y+z'
  41  '-y+1/2, x-y, -y+z+1/2'
  42  'y+1/2, -x+y, y-z+1/2'
  43  '-z, -y+1/2, -x'
  44  'z, y+1/2, x'
  45  'x-z, -z, y-z'
  46  '-x+z, z, -y+z'
  47  'x-y, x-z, x+1/2'
  48  '-x+y, -x+z, -x+1/2'
loop_
 _atom_site_type_symbol
 _atom_site_label
 _atom_site_symmetry_multiplicity
 _atom_site_fract_x
 _atom_site_fract_y
 _atom_site_fract_z
 _atom_site_occupancy
  Bi  Bi0  48  0.03937100  0.12838000  0.71570700  1.0
  Rh  Rh1  12  0.12500000  0.37500000  0.75000000  1.0
