# generated using pymatgen
data_Y2C2I0.2Br1.8
_symmetry_space_group_name_H-M   Pmmn
_cell_length_a   4.57582800
_cell_length_b   5.01518900
_cell_length_c   5.38509200
_cell_angle_alpha   90.00000000
_cell_angle_beta   90.00000000
_cell_angle_gamma   90.00000000
_symmetry_Int_Tables_number   59
_chemical_formula_structural   Y2C2I0.2Br1.8
_chemical_formula_sum   'Y2 C2 I0.2 Br1.8'
_cell_volume   123.58054980
_cell_formula_units_Z   1
loop_
 _symmetry_equiv_pos_site_id
 _symmetry_equiv_pos_as_xyz
  1  'x, y, z'
  2  '-x, -y, z'
  3  'x+1/2, -y+1/2, -z'
  4  '-x+1/2, y+1/2, -z'
  5  '-x+1/2, -y+1/2, -z'
  6  'x+1/2, y+1/2, -z'
  7  '-x, y, z'
  8  'x, -y, z'
loop_
 _atom_site_type_symbol
 _atom_site_label
 _atom_site_symmetry_multiplicity
 _atom_site_fract_x
 _atom_site_fract_y
 _atom_site_fract_z
 _atom_site_occupancy
  Y  Y0  2  0.00000000  0.00000000  0.12348400  1.0
  C  C1  2  0.00000000  0.50000000  0.04889000  1.0
  Br  Br2  2  0.00000000  0.50000000  0.47453400  0.9
  I  I3  2  0.00000000  0.50000000  0.47453400  0.1
