# generated using pymatgen
data_Br
_symmetry_space_group_name_H-M   Cmce
_cell_length_a   4.25864800
_cell_length_b   4.73221932
_cell_length_c   8.74379600
_cell_angle_alpha   90.00000000
_cell_angle_beta   90.00000000
_cell_angle_gamma   116.74131552
_symmetry_Int_Tables_number   64
_chemical_formula_structural   Br
_chemical_formula_sum   Br4
_cell_volume   157.36604040
_cell_formula_units_Z   4
loop_
 _symmetry_equiv_pos_site_id
 _symmetry_equiv_pos_as_xyz
  1  'x, y, z'
  2  '-x, -y, -z'
  3  '-x+1/2, -y, z+1/2'
  4  'x+1/2, y, -z+1/2'
  5  '-x+y, y, -z'
  6  'x-y, -y, z'
  7  'x-y+1/2, -y, -z+1/2'
  8  '-x+y+1/2, y, z+1/2'
loop_
 _atom_site_type_symbol
 _atom_site_label
 _atom_site_symmetry_multiplicity
 _atom_site_fract_x
 _atom_site_fract_y
 _atom_site_fract_z
 _atom_site_occupancy
  Br  Br0  4  0.14247300  0.00000000  0.38224900  1.0
