# generated using pymatgen
data_Mo3S3Br
_symmetry_space_group_name_H-M   R-3
_cell_length_a   6.56415841
_cell_length_b   6.56415841
_cell_length_c   6.56415790
_cell_angle_alpha   94.20850875
_cell_angle_beta   94.20850875
_cell_angle_gamma   94.20849828
_symmetry_Int_Tables_number   148
_chemical_formula_structural   Mo3S3Br
_chemical_formula_sum   'Mo6 S6 Br2'
_cell_volume   280.43071319
_cell_formula_units_Z   2
loop_
 _symmetry_equiv_pos_site_id
 _symmetry_equiv_pos_as_xyz
  1  'x, y, z'
  2  '-x, -y, -z'
  3  'z, x, y'
  4  '-z, -x, -y'
  5  'y, z, x'
  6  '-y, -z, -x'
loop_
 _atom_site_type_symbol
 _atom_site_label
 _atom_site_symmetry_multiplicity
 _atom_site_fract_x
 _atom_site_fract_y
 _atom_site_fract_z
 _atom_site_occupancy
  Mo  Mo0  6  0.22037500  0.40826300  0.54936200  1.0
  S  S1  6  0.13447500  0.71744000  0.37735700  1.0
  Br  Br2  2  0.19067700  0.19067700  0.19067700  1.0
