# generated using pymatgen
data_Nb1C0.026N0.974
_symmetry_space_group_name_H-M   P-6m2
_cell_length_a   2.89865600
_cell_length_b   2.97619200
_cell_length_c   2.97619211
_cell_angle_alpha   60.00000117
_cell_angle_beta   90.00000000
_cell_angle_gamma   90.00000000
_symmetry_Int_Tables_number   187
_chemical_formula_structural   Nb1C0.026N0.974
_chemical_formula_sum   'Nb1 C0.026 N0.974'
_cell_volume   22.23561885
_cell_formula_units_Z   1
loop_
 _symmetry_equiv_pos_site_id
 _symmetry_equiv_pos_as_xyz
  1  'x, y, z'
  2  '-x, z, -y-z'
  3  'x, -y-z, y'
  4  '-x, y, z'
  5  'x, z, -y-z'
  6  '-x, -y-z, y'
  7  '-x, y, -y-z'
  8  'x, z, y'
  9  '-x, -y-z, z'
  10  'x, y, -y-z'
  11  '-x, z, y'
  12  'x, -y-z, z'
loop_
 _atom_site_type_symbol
 _atom_site_label
 _atom_site_symmetry_multiplicity
 _atom_site_fract_x
 _atom_site_fract_y
 _atom_site_fract_z
 _atom_site_occupancy
  Nb  Nb0  1  0.00000000  0.33333333  0.33333333  1.0
  N  N1  1  0.50000000  0.00000000  0.00000000  0.974
  C  C2  1  0.50000000  0.00000000  0.00000000  0.026
