# generated using pymatgen
data_Nb8C3.84
_symmetry_space_group_name_H-M   Pnma
_cell_length_a   3.10692600
_cell_length_b   4.99959800
_cell_length_c   11.02333200
_cell_angle_alpha   90.00000000
_cell_angle_beta   90.00000000
_cell_angle_gamma   90.00000000
_symmetry_Int_Tables_number   62
_chemical_formula_structural   Nb8C3.84
_chemical_formula_sum   'Nb8 C3.84'
_cell_volume   171.22961602
_cell_formula_units_Z   1
loop_
 _symmetry_equiv_pos_site_id
 _symmetry_equiv_pos_as_xyz
  1  'x, y, z'
  2  '-x, -y, -z'
  3  '-x, y+1/2, -z+1/2'
  4  'x, -y+1/2, z+1/2'
  5  '-x+1/2, -y+1/2, z+1/2'
  6  'x+1/2, y+1/2, -z+1/2'
  7  'x+1/2, -y, -z'
  8  '-x+1/2, y, z'
loop_
 _atom_site_type_symbol
 _atom_site_label
 _atom_site_symmetry_multiplicity
 _atom_site_fract_x
 _atom_site_fract_y
 _atom_site_fract_z
 _atom_site_occupancy
  Nb  Nb0  4  0.25000000  0.23408500  0.20336800  1.0
  Nb  Nb1  4  0.25000000  0.74604800  0.04557800  1.0
  C  C2  4  0.25000000  0.50906800  0.87513900  0.96
