# generated using pymatgen
data_Mo4C3
_symmetry_space_group_name_H-M   R-3m
_cell_length_a   3.09698130
_cell_length_b   3.09698130
_cell_length_c   9.87763810
_cell_angle_alpha   80.98069812
_cell_angle_beta   80.98069812
_cell_angle_gamma   60.00001485
_symmetry_Int_Tables_number   166
_chemical_formula_structural   Mo4C3
_chemical_formula_sum   'Mo4 C3'
_cell_volume   80.69122609
_cell_formula_units_Z   1
loop_
 _symmetry_equiv_pos_site_id
 _symmetry_equiv_pos_as_xyz
  1  'x, y, z'
  2  '-x, -y, -z'
  3  '-x-y-z, x, z'
  4  'x+y+z, -x, -z'
  5  'y, -x-y-z, z'
  6  '-y, x+y+z, -z'
  7  '-x, x+y+z, -z'
  8  'x, -x-y-z, z'
  9  'x+y+z, -y, -z'
  10  '-x-y-z, y, z'
  11  '-y, -x, -z'
  12  'y, x, z'
loop_
 _atom_site_type_symbol
 _atom_site_label
 _atom_site_symmetry_multiplicity
 _atom_site_fract_x
 _atom_site_fract_y
 _atom_site_fract_z
 _atom_site_occupancy
  Mo  Mo0  2  0.12177700  0.12177700  0.63466900  1.0
  Mo  Mo1  2  0.37539700  0.37539700  0.87380900  1.0
  C  C2  2  0.25602300  0.25602300  0.23193100  1.0
  C  C3  1  0.50000000  0.50000000  0.50000000  1.0
