# generated using pymatgen
data_Y2C1.84
_symmetry_space_group_name_H-M   P2_1
_cell_length_a   8.16414703
_cell_length_b   8.48049700
_cell_length_c   13.97979835
_cell_angle_alpha   90.00000000
_cell_angle_beta   104.37280296
_cell_angle_gamma   90.00000000
_symmetry_Int_Tables_number   4
_chemical_formula_structural   Y2C1.84
_chemical_formula_sum   'Y2 C1.84'
_cell_volume   937.61127676
_cell_formula_units_Z   1
loop_
 _symmetry_equiv_pos_site_id
 _symmetry_equiv_pos_as_xyz
  1  'x, y, z'
  2  '-x, y+1/2, -z'
loop_
 _atom_site_type_symbol
 _atom_site_label
 _atom_site_symmetry_multiplicity
 _atom_site_fract_x
 _atom_site_fract_y
 _atom_site_fract_z
 _atom_site_occupancy
  Y  Y0  2  0.31889800  0.15219200  0.23321900  1.0
  C  C1  2  0.17115500  0.00780800  0.27599300  0.92
