# generated using pymatgen
data_C
_symmetry_space_group_name_H-M   Pnnm
_cell_length_a   9.11809600
_cell_length_b   9.63450600
_cell_length_c   13.32243700
_cell_angle_alpha   90.00000000
_cell_angle_beta   90.00000000
_cell_angle_gamma   90.00000000
_symmetry_Int_Tables_number   58
_chemical_formula_structural   C
_chemical_formula_sum   C120
_cell_volume   1170.35411670
_cell_formula_units_Z   120
loop_
 _symmetry_equiv_pos_site_id
 _symmetry_equiv_pos_as_xyz
  1  'x, y, z'
  2  '-x, -y, -z'
  3  'x, -y, -z'
  4  '-x, y, z'
  5  '-x+1/2, y+1/2, -z+1/2'
  6  'x+1/2, -y+1/2, z+1/2'
  7  '-x+1/2, -y+1/2, z+1/2'
  8  'x+1/2, y+1/2, -z+1/2'
loop_
 _atom_site_type_symbol
 _atom_site_label
 _atom_site_symmetry_multiplicity
 _atom_site_fract_x
 _atom_site_fract_y
 _atom_site_fract_z
 _atom_site_occupancy
  C  C0  8  0.07741200  0.39229500  0.42994500  1.0
  C  C1  8  0.07923200  0.36151800  0.01187800  1.0
  C  C2  8  0.08602400  0.01060700  0.75200700  1.0
  C  C3  8  0.08764300  0.25907100  0.19728800  1.0
  C  C4  8  0.12858400  0.34938400  0.91058800  1.0
  C  C5  8  0.13435000  0.15177200  0.75596300  1.0
  C  C6  8  0.14976100  0.49137000  0.38532200  1.0
  C  C7  8  0.15118600  0.30276800  0.09364100  1.0
  C  C8  8  0.16896200  0.28017400  0.46814100  1.0
  C  C9  8  0.17044300  0.12096500  0.21649900  1.0
  C  C10  8  0.21882700  0.26061200  0.27788100  1.0
  C  C11  8  0.22468800  0.39746600  0.63335900  1.0
  C  C12  8  0.23022000  0.28037300  0.56509900  1.0
  C  C13  8  0.23830800  0.21611600  0.38751600  1.0
  C  C14  4  0.00000000  0.23234200  0.77179600  1.0
  C  C15  4  0.00000000  0.33374700  0.84655200  1.0
