# generated using pymatgen
data_C
_symmetry_space_group_name_H-M   P1
_cell_length_a   10.42721568
_cell_length_b   10.68130827
_cell_length_c   10.74770351
_cell_angle_alpha   89.89164528
_cell_angle_beta   84.88401351
_cell_angle_gamma   93.22556712
_symmetry_Int_Tables_number   1
_chemical_formula_structural   C
_chemical_formula_sum   C100
_cell_volume   1190.35319220
_cell_formula_units_Z   100
loop_
 _symmetry_equiv_pos_site_id
 _symmetry_equiv_pos_as_xyz
  1  'x, y, z'
loop_
 _atom_site_type_symbol
 _atom_site_label
 _atom_site_symmetry_multiplicity
 _atom_site_fract_x
 _atom_site_fract_y
 _atom_site_fract_z
 _atom_site_occupancy
  C  C0  1  0.01957000  0.24332600  0.12456900  1.0
  C  C1  1  0.02198200  0.89181800  0.13060500  1.0
  C  C2  1  0.03773800  0.71523900  0.70763300  1.0
  C  C3  1  0.04294800  0.57458000  0.10310500  1.0
  C  C4  1  0.04529300  0.42555800  0.44011700  1.0
  C  C5  1  0.04806600  0.85571700  0.25344300  1.0
  C  C6  1  0.07179900  0.29780400  0.41082900  1.0
  C  C7  1  0.08072700  0.63613700  0.39166800  1.0
  C  C8  1  0.10916200  0.26283800  0.19427300  1.0
  C  C9  1  0.10951700  0.89091800  0.02382100  1.0
  C  C10  1  0.11434600  0.52734400  0.01627600  1.0
  C  C11  1  0.13013000  0.65692500  0.75446300  1.0
  C  C12  1  0.13501600  0.53301500  0.44750500  1.0
  C  C13  1  0.13871100  0.86232500  0.33628700  1.0
  C  C14  1  0.15323900  0.74846300  0.40081900  1.0
  C  C15  1  0.17002400  0.29638400  0.29870600  1.0
  C  C16  1  0.19135800  0.49950800  0.91242200  1.0
  C  C17  1  0.21535500  0.86826900  0.97187600  1.0
  C  C18  1  0.21821300  0.59299000  0.80803800  1.0
  C  C19  1  0.22191700  0.98032800  0.33997800  1.0
  C  C20  1  0.25797400  0.58606100  0.49066700  1.0
  C  C21  1  0.26205000  0.71636100  0.46368700  1.0
  C  C22  1  0.26607800  0.03774100  0.43959800  1.0
  C  C23  1  0.26715100  0.03132600  0.22185200  1.0
  C  C24  1  0.26948900  0.34027500  0.76144400  1.0
  C  C25  1  0.27062900  0.39243500  0.87939500  1.0
  C  C26  1  0.28897600  0.27947300  0.66429200  1.0
  C  C27  1  0.29399300  0.34592300  0.31763200  1.0
  C  C28  1  0.30984200  0.06049800  0.11591300  1.0
  C  C29  1  0.34615700  0.86571700  0.93023600  1.0
  C  C30  1  0.34968800  0.10368400  0.50116300  1.0
  C  C31  1  0.35851100  0.60374500  0.77242000  1.0
  C  C32  1  0.36117000  0.21795700  0.57267500  1.0
  C  C33  1  0.36421700  0.08937300  0.99289900  1.0
  C  C34  1  0.36555900  0.80024000  0.47210400  1.0
  C  C35  1  0.36862500  0.33346500  0.95304900  1.0
  C  C36  1  0.37135600  0.39545500  0.38565300  1.0
  C  C37  1  0.37285400  0.21043600  0.96542600  1.0
  C  C38  1  0.37866400  0.54924500  0.53846600  1.0
  C  C39  1  0.41512200  0.74808100  0.95105400  1.0
  C  C40  1  0.41622300  0.63183700  0.64608300  1.0
  C  C41  1  0.41660800  0.98100700  0.91950100  1.0
  C  C42  1  0.44066000  0.73405100  0.07041200  1.0
  C  C43  1  0.44342900  0.44946200  0.48087600  1.0
  C  C44  1  0.44813300  0.88647500  0.46682900  1.0
  C  C45  1  0.46249400  0.64157900  0.86533500  1.0
  C  C46  1  0.47196500  0.42059600  0.98278200  1.0
  C  C47  1  0.48656400  0.71107200  0.17135700  1.0
  C  C48  1  0.49606600  0.23610600  0.53548200  1.0
  C  C49  1  0.49653700  0.09883500  0.49499900  1.0
  C  C50  1  0.50580700  0.54060500  0.95311300  1.0
  C  C51  1  0.51864100  0.72465400  0.65068700  1.0
  C  C52  1  0.54203300  0.98820200  0.86095100  1.0
  C  C53  1  0.54386400  0.97960100  0.48328600  1.0
  C  C54  1  0.55366400  0.36401500  0.50748400  1.0
  C  C55  1  0.56770000  0.68571100  0.76851000  1.0
  C  C56  1  0.57316700  0.47832700  0.04990000  1.0
  C  C57  1  0.57509700  0.72584100  0.25087700  1.0
  C  C58  1  0.63017000  0.77626400  0.56417700  1.0
  C  C59  1  0.64622300  0.97665300  0.80198100  1.0
  C  C60  1  0.65340300  0.45368000  0.14526100  1.0
  C  C61  1  0.65582600  0.77165200  0.31786600  1.0
  C  C62  1  0.67020500  0.90987700  0.49596000  1.0
  C  C63  1  0.68709800  0.38287200  0.48245700  1.0
  C  C64  1  0.68786100  0.64562100  0.72623500  1.0
  C  C65  1  0.71387300  0.45962800  0.26479000  1.0
  C  C66  1  0.72419100  0.35530300  0.19166100  1.0
  C  C67  1  0.72495300  0.70475700  0.60228400  1.0
  C  C68  1  0.72726700  0.87658400  0.35792200  1.0
  C  C69  1  0.74003500  0.53298800  0.75645100  1.0
  C  C70  1  0.75292100  0.98087600  0.58413200  1.0
  C  C71  1  0.76584400  0.97034700  0.72420300  1.0
  C  C72  1  0.76874700  0.28218500  0.51580900  1.0
  C  C73  1  0.76929500  0.47916500  0.39230900  1.0
  C  C74  1  0.77027400  0.42356700  0.74648900  1.0
  C  C75  1  0.78577200  0.22351200  0.63670300  1.0
  C  C76  1  0.79000000  0.08774400  0.63702200  1.0
  C  C77  1  0.79318800  0.29501200  0.74429700  1.0
  C  C78  1  0.79491300  0.24497200  0.18694500  1.0
  C  C79  1  0.81373200  0.93691200  0.26966400  1.0
  C  C80  1  0.81460400  0.17994700  0.29630600  1.0
  C  C81  1  0.82655600  0.24834300  0.85815600  1.0
  C  C82  1  0.82918500  0.86738600  0.02861500  1.0
  C  C83  1  0.84355500  0.22935800  0.42153700  1.0
  C  C84  1  0.84977800  0.67619400  0.54222600  1.0
  C  C85  1  0.85004700  0.59362100  0.43427500  1.0
  C  C86  1  0.85191100  0.88497200  0.91509100  1.0
  C  C87  1  0.86219500  0.89018300  0.78348300  1.0
  C  C88  1  0.86842000  0.23820000  0.96016700  1.0
  C  C89  1  0.87297400  0.86974100  0.15235100  1.0
  C  C90  1  0.87422000  0.05838900  0.29596300  1.0
  C  C91  1  0.89816200  0.23254000  0.08332900  1.0
  C  C92  1  0.92227100  0.47493300  0.39479500  1.0
  C  C93  1  0.93865100  0.80721900  0.71585900  1.0
  C  C94  1  0.94604800  0.72648300  0.61213800  1.0
  C  C95  1  0.95827000  0.76889800  0.19605200  1.0
  C  C96  1  0.96309400  0.59819400  0.33348400  1.0
  C  C97  1  0.97533500  0.63459000  0.19575100  1.0
  C  C98  1  0.97827800  0.19828100  0.41689600  1.0
  C  C99  1  0.98579300  0.08615400  0.34809000  1.0
