# generated using pymatgen
data_C
_symmetry_space_group_name_H-M   Cm
_cell_length_a   7.49673515
_cell_length_b   14.77696759
_cell_length_c   14.77696759
_cell_angle_alpha   60.31941213
_cell_angle_beta   89.98998204
_cell_angle_gamma   89.98998204
_symmetry_Int_Tables_number   8
_chemical_formula_structural   C
_chemical_formula_sum   C71
_cell_volume   1422.20524992
_cell_formula_units_Z   71
loop_
 _symmetry_equiv_pos_site_id
 _symmetry_equiv_pos_as_xyz
  1  'x, y, z'
  2  'x, z, y'
loop_
 _atom_site_type_symbol
 _atom_site_label
 _atom_site_symmetry_multiplicity
 _atom_site_fract_x
 _atom_site_fract_y
 _atom_site_fract_z
 _atom_site_occupancy
  C  C0  2  0.48005900  0.27009400  0.45021800  1.0
  C  C1  2  0.48452500  0.16316400  0.50314600  1.0
  C  C2  2  0.48473800  0.33109800  0.49817700  1.0
  C  C3  2  0.48691100  0.17018200  0.33521800  1.0
  C  C4  2  0.48744300  0.10864700  0.44657000  1.0
  C  C5  2  0.49191000  0.10852700  0.61402000  1.0
  C  C6  2  0.49206100  0.27622000  0.61101700  1.0
  C  C7  2  0.49290800  0.11338600  0.27871200  1.0
  C  C8  2  0.49495100  0.50050800  0.99945000  1.0
  C  C9  2  0.49539500  0.16546100  0.66779900  1.0
  C  C10  2  0.49824700  0.00120000  0.33387700  1.0
  C  C11  2  0.49837300  0.33248100  0.66638400  1.0
  C  C12  2  0.49895100  0.66825300  0.99815600  1.0
  C  C13  2  0.49943100  0.44453000  0.94386300  1.0
  C  C14  2  0.49947600  0.44337500  0.61020800  1.0
  C  C15  2  0.49967400  0.61201900  0.94333500  1.0
  C  C16  2  0.50369300  0.27810600  0.94534000  1.0
  C  C17  2  0.50404100  0.27742100  0.77782300  1.0
  C  C18  2  0.50440700  0.11067300  0.77877700  1.0
  C  C19  2  0.50512300  0.49969600  0.83303300  1.0
  C  C20  2  0.50517400  0.33333333  0.83365800  1.0
  C  C21  2  0.50529100  0.49921300  0.66568400  1.0
  C  C22  2  0.50575600  0.66658000  0.83282900  1.0
  C  C23  2  0.50578600  0.77869600  0.94378900  1.0
  C  C24  2  0.50587700  0.44392800  0.77730100  1.0
  C  C25  2  0.50633000  0.00103400  0.16712000  1.0
  C  C26  2  0.50699300  0.16652400  0.83402300  1.0
  C  C27  2  0.50739500  0.61081300  0.77718900  1.0
  C  C28  2  0.50825400  0.83398600  0.99982500  1.0
  C  C29  2  0.51017700  0.11145200  0.94520300  1.0
  C  C30  1  0.48416100  0.28047700  0.28047700  1.0
  C  C31  1  0.48665600  0.44296900  0.44296900  1.0
  C  C32  1  0.49488200  0.49829900  0.49829900  1.0
  C  C33  1  0.49592500  0.16807400  0.16807400  1.0
  C  C34  1  0.50343400  0.11200800  0.11200800  1.0
  C  C35  1  0.50712100  0.77760700  0.77760700  1.0
  C  C36  1  0.50733800  0.83322200  0.83322200  1.0
  C  C37  1  0.50737900  0.61029200  0.61029200  1.0
  C  C38  1  0.50902000  0.66610300  0.66610300  1.0
  C  C39  1  0.51160400  0.94482300  0.94482300  1.0
  C  C40  1  0.51209800  0.00054700  0.00054700  1.0
