# generated using pymatgen
data_C
_symmetry_space_group_name_H-M   I4/mmm
_cell_length_a   5.80144774
_cell_length_b   5.80144774
_cell_length_c   5.80144774
_cell_angle_alpha   108.68294005
_cell_angle_beta   108.68294006
_cell_angle_gamma   111.05955299
_symmetry_Int_Tables_number   139
_chemical_formula_structural   C
_chemical_formula_sum   C12
_cell_volume   150.22288333
_cell_formula_units_Z   12
loop_
 _symmetry_equiv_pos_site_id
 _symmetry_equiv_pos_as_xyz
  1  'x, y, z'
  2  '-x, -y, -z'
  3  'x-z, x, x-y'
  4  '-x+z, -x, -x+y'
  5  'y-z, x-z, -z'
  6  '-y+z, -x+z, z'
  7  'y, y-z, -x+y'
  8  '-y, -y+z, x-y'
  9  '-y+z, -y, x-y'
  10  'y-z, y, -x+y'
  11  '-y, -x, -z'
  12  'y, x, z'
  13  '-x, -x+z, -x+y'
  14  'x, x-z, x-y'
  15  '-x+z, -y+z, z'
  16  'x-z, y-z, -z'
loop_
 _atom_site_type_symbol
 _atom_site_label
 _atom_site_symmetry_multiplicity
 _atom_site_fract_x
 _atom_site_fract_y
 _atom_site_fract_z
 _atom_site_occupancy
  C  C0  8  0.03013900  0.03013900  0.41842600  1.0
  C  C1  4  0.12128900  0.12128900  0.24257800  1.0
