# generated using pymatgen
data_C
_symmetry_space_group_name_H-M   P1
_cell_length_a   10.20551591
_cell_length_b   10.41973578
_cell_length_c   10.53784370
_cell_angle_alpha   88.63558991
_cell_angle_beta   86.51810317
_cell_angle_gamma   89.61530976
_symmetry_Int_Tables_number   1
_chemical_formula_structural   C
_chemical_formula_sum   C100
_cell_volume   1118.18017369
_cell_formula_units_Z   100
loop_
 _symmetry_equiv_pos_site_id
 _symmetry_equiv_pos_as_xyz
  1  'x, y, z'
loop_
 _atom_site_type_symbol
 _atom_site_label
 _atom_site_symmetry_multiplicity
 _atom_site_fract_x
 _atom_site_fract_y
 _atom_site_fract_z
 _atom_site_occupancy
  C  C0  1  0.03789900  0.60242000  0.64623800  1.0
  C  C1  1  0.04446400  0.33203100  0.64579500  1.0
  C  C2  1  0.04504300  0.03762000  0.28490100  1.0
  C  C3  1  0.05287400  0.71440100  0.25779200  1.0
  C  C4  1  0.06500900  0.47292300  0.30651400  1.0
  C  C5  1  0.07876400  0.78117300  0.59946700  1.0
  C  C6  1  0.08430400  0.89226300  0.52796400  1.0
  C  C7  1  0.08921000  0.37215200  0.53616300  1.0
  C  C8  1  0.09209700  0.04890600  0.77245500  1.0
  C  C9  1  0.10548900  0.61618200  0.31244400  1.0
  C  C10  1  0.11019800  0.29973600  0.95675500  1.0
  C  C11  1  0.11326200  0.07981100  0.89181800  1.0
  C  C12  1  0.12169200  0.65989100  0.55313500  1.0
  C  C13  1  0.12510300  0.40756900  0.04765500  1.0
  C  C14  1  0.13334300  0.38222900  0.19262400  1.0
  C  C15  1  0.13757400  0.43149100  0.42932700  1.0
  C  C16  1  0.13948800  0.52682900  0.99501700  1.0
  C  C17  1  0.15713600  0.12173100  0.27986600  1.0
  C  C18  1  0.17108300  0.01201100  0.34854500  1.0
  C  C19  1  0.17739800  0.62780100  0.93475700  1.0
  C  C20  1  0.18277800  0.24748200  0.23467400  1.0
  C  C21  1  0.18773600  0.89963300  0.42984400  1.0
  C  C22  1  0.19127200  0.19418700  0.93394900  1.0
  C  C23  1  0.20190900  0.64948200  0.43157100  1.0
  C  C24  1  0.25059100  0.71016300  0.86757000  1.0
  C  C25  1  0.25819300  0.51574500  0.42514200  1.0
  C  C26  1  0.26912100  0.33942800  0.22583000  1.0
  C  C27  1  0.27617700  0.78612000  0.41418100  1.0
  C  C28  1  0.33584700  0.18344700  0.92886300  1.0
  C  C29  1  0.34311100  0.76701800  0.80368200  1.0
  C  C30  1  0.37687400  0.48662900  0.36434100  1.0
  C  C31  1  0.38503600  0.39887500  0.25668800  1.0
  C  C32  1  0.41187000  0.79851900  0.39748100  1.0
  C  C33  1  0.41858200  0.75385500  0.09395500  1.0
  C  C34  1  0.42009200  0.39240100  0.81287400  1.0
  C  C35  1  0.42107300  0.25129100  0.82738400  1.0
  C  C36  1  0.42626100  0.12516600  0.00062400  1.0
  C  C37  1  0.42844400  0.44601700  0.69461700  1.0
  C  C38  1  0.43942300  0.63551500  0.07028300  1.0
  C  C39  1  0.44660600  0.66796600  0.64510900  1.0
  C  C40  1  0.45548700  0.50645900  0.04746300  1.0
  C  C41  1  0.46037900  0.76583100  0.73167800  1.0
  C  C42  1  0.47408400  0.47762100  0.91125200  1.0
  C  C43  1  0.48416300  0.44196900  0.17065600  1.0
  C  C44  1  0.49161000  0.56673200  0.34895400  1.0
  C  C45  1  0.49368400  0.91619100  0.38298300  1.0
  C  C46  1  0.50645700  0.54792000  0.65232500  1.0
  C  C47  1  0.51089700  0.69569200  0.36941500  1.0
  C  C48  1  0.53699000  0.20884700  0.77477000  1.0
  C  C49  1  0.55012400  0.12172800  0.00818000  1.0
  C  C50  1  0.57113700  0.55740300  0.86123900  1.0
  C  C51  1  0.57206600  0.00659600  0.44631000  1.0
  C  C52  1  0.57480100  0.51243300  0.24724600  1.0
  C  C53  1  0.59190300  0.82570100  0.75291200  1.0
  C  C54  1  0.60279300  0.01029200  0.57420200  1.0
  C  C55  1  0.61569500  0.88363300  0.31644300  1.0
  C  C56  1  0.62338400  0.53630400  0.72629300  1.0
  C  C57  1  0.62684100  0.92839800  0.67217500  1.0
  C  C58  1  0.63894500  0.75235400  0.33542400  1.0
  C  C59  1  0.64818800  0.65491900  0.91748400  1.0
  C  C60  1  0.65898300  0.17326800  0.80379500  1.0
  C  C61  1  0.66640600  0.15497800  0.94909200  1.0
  C  C62  1  0.67396500  0.76865300  0.84211100  1.0
  C  C63  1  0.69545500  0.99748600  0.35165000  1.0
  C  C64  1  0.70463700  0.52710000  0.21715100  1.0
  C  C65  1  0.73885100  0.02098500  0.62647700  1.0
  C  C66  1  0.74747800  0.49542500  0.72719800  1.0
  C  C67  1  0.74771800  0.63727400  0.00769000  1.0
  C  C68  1  0.75953800  0.51816300  0.08614200  1.0
  C  C69  1  0.76940900  0.12674000  0.71534300  1.0
  C  C70  1  0.77392900  0.70053200  0.34177900  1.0
  C  C71  1  0.78714900  0.09702400  0.25622000  1.0
  C  C72  1  0.78733200  0.16906100  0.02402300  1.0
  C  C73  1  0.79151600  0.28440800  0.10589200  1.0
  C  C74  1  0.79816300  0.25160300  0.23862800  1.0
  C  C75  1  0.80636100  0.57213100  0.29772100  1.0
  C  C76  1  0.80727700  0.06175200  0.11752800  1.0
  C  C77  1  0.80974500  0.40484600  0.03817200  1.0
  C  C78  1  0.81131400  0.79593700  0.87338600  1.0
  C  C79  1  0.82608600  0.93870000  0.40419700  1.0
  C  C80  1  0.82738200  0.45606200  0.80843600  1.0
  C  C81  1  0.83724700  0.73928500  0.99826800  1.0
  C  C82  1  0.85035000  0.97307700  0.53995000  1.0
  C  C83  1  0.85742800  0.34609200  0.30243500  1.0
  C  C84  1  0.86091300  0.80457200  0.35195200  1.0
  C  C85  1  0.87561200  0.39589800  0.90906500  1.0
  C  C86  1  0.90099800  0.15674100  0.71438100  1.0
  C  C87  1  0.90407800  0.02681000  0.31107200  1.0
  C  C88  1  0.90728200  0.77912400  0.78486200  1.0
  C  C89  1  0.90871200  0.46556600  0.30831100  1.0
  C  C90  1  0.91511200  0.17056900  0.94829800  1.0
  C  C91  1  0.92378400  0.99941600  0.08663700  1.0
  C  C92  1  0.97329800  0.81476200  0.25985100  1.0
  C  C93  1  0.97656600  0.29033500  0.88842000  1.0
  C  C94  1  0.97754400  0.97981000  0.57509700  1.0
  C  C95  1  0.97881300  0.94666300  0.20387000  1.0
  C  C96  1  0.97997600  0.27098900  0.74481900  1.0
  C  C97  1  0.98822200  0.06451500  0.97442000  1.0
  C  C98  1  0.99181500  0.72952800  0.70262200  1.0
  C  C99  1  0.99999000  0.05216900  0.68577600  1.0
