# generated using pymatgen
data_C
_symmetry_space_group_name_H-M   Fmmm
_cell_length_a   2.46807000
_cell_length_b   2.46811822
_cell_length_c   4.17648825
_cell_angle_alpha   81.50442232
_cell_angle_beta   72.81416209
_cell_angle_gamma   60.00064626
_symmetry_Int_Tables_number   69
_chemical_formula_structural   C
_chemical_formula_sum   C2
_cell_volume   21.04899236
_cell_formula_units_Z   2
loop_
 _symmetry_equiv_pos_site_id
 _symmetry_equiv_pos_as_xyz
  1  'x, y, z'
  2  '-x, -y, -z'
  3  '-x-z, -y, z'
  4  'x+z, y, -z'
  5  'x+y+z, -y, -z'
  6  '-x-y-z, y, z'
  7  '-x-y, y, -z'
  8  'x+y, -y, z'
loop_
 _atom_site_type_symbol
 _atom_site_label
 _atom_site_symmetry_multiplicity
 _atom_site_fract_x
 _atom_site_fract_y
 _atom_site_fract_z
 _atom_site_occupancy
  C  C0  2  0.33333333  0.33333333  0.00000000  1.0
