# generated using pymatgen
data_C
_symmetry_space_group_name_H-M   I4/mmm
_cell_length_a   6.79187400
_cell_length_b   8.96410805
_cell_length_c   8.96410805
_cell_angle_alpha   81.74855541
_cell_angle_beta   67.73832937
_cell_angle_gamma   67.73832937
_symmetry_Int_Tables_number   139
_chemical_formula_structural   C
_chemical_formula_sum   C20
_cell_volume   467.43609174
_cell_formula_units_Z   20
loop_
 _symmetry_equiv_pos_site_id
 _symmetry_equiv_pos_as_xyz
  1  'x, y, z'
  2  '-x, -y, -z'
  3  'x+y, z, -y'
  4  '-x-y, -z, y'
  5  'x+y+z, -y, -z'
  6  '-x-y-z, y, z'
  7  'x+z, -z, y'
  8  '-x-z, z, -y'
  9  '-x-y-z, z, y'
  10  'x+y+z, -z, -y'
  11  '-x-z, -y, z'
  12  'x+z, y, -z'
  13  '-x, -z, -y'
  14  'x, z, y'
  15  '-x-y, y, -z'
  16  'x+y, -y, z'
loop_
 _atom_site_type_symbol
 _atom_site_label
 _atom_site_symmetry_multiplicity
 _atom_site_fract_x
 _atom_site_fract_y
 _atom_site_fract_z
 _atom_site_occupancy
  C  C0  8  0.05076400  0.00000000  0.54266000  1.0
  C  C1  8  0.05152900  0.14196300  0.75497800  1.0
  C  C2  4  0.17696700  0.00000000  0.64606600  1.0
