# generated using pymatgen
data_C
_symmetry_space_group_name_H-M   Cmcm
_cell_length_a   10.06696265
_cell_length_b   10.06696265
_cell_length_c   17.99996300
_cell_angle_alpha   90.00000000
_cell_angle_beta   90.00000000
_cell_angle_gamma   119.72477753
_symmetry_Int_Tables_number   63
_chemical_formula_structural   C
_chemical_formula_sum   C140
_cell_volume   1584.15229106
_cell_formula_units_Z   140
loop_
 _symmetry_equiv_pos_site_id
 _symmetry_equiv_pos_as_xyz
  1  'x, y, z'
  2  '-x, -y, -z'
  3  '-x, -y, z+1/2'
  4  'x, y, -z+1/2'
  5  'y, x, -z'
  6  '-y, -x, z'
  7  '-y, -x, -z+1/2'
  8  'y, x, z+1/2'
loop_
 _atom_site_type_symbol
 _atom_site_label
 _atom_site_symmetry_multiplicity
 _atom_site_fract_x
 _atom_site_fract_y
 _atom_site_fract_z
 _atom_site_occupancy
  C  C0  8  0.01659900  0.47585100  0.11416400  1.0
  C  C1  8  0.02676500  0.48096000  0.68293000  1.0
  C  C2  8  0.03825500  0.68246200  0.18281700  1.0
  C  C3  8  0.04496600  0.28094000  0.18272400  1.0
  C  C4  8  0.05291600  0.35882900  0.11422600  1.0
  C  C5  8  0.10789200  0.61148700  0.07135400  1.0
  C  C6  8  0.12249800  0.73980900  0.11417200  1.0
  C  C7  8  0.16609000  0.24469900  0.18258400  1.0
  C  C8  8  0.17907800  0.37135400  0.07028000  1.0
  C  C9  8  0.23282900  0.62426600  0.03050100  1.0
  C  C10  8  0.25052000  0.30028800  0.11392300  1.0
  C  C11  8  0.26668500  0.50130700  0.02792800  1.0
  C  C12  8  0.36062900  0.40755200  0.61383600  1.0
  C  C13  8  0.37345800  0.48427100  0.68257400  1.0
  C  C14  4  0.00654200  0.68553600  0.75000000  1.0
  C  C15  4  0.04421000  0.56251000  0.75000000  1.0
  C  C16  4  0.08696000  0.76779100  0.25000000  1.0
  C  C17  4  0.23859900  0.24220900  0.25000000  1.0
  C  C18  4  0.30913700  0.40348800  0.75000000  1.0
  C  C19  4  0.43630000  0.56370000  0.01317400  1.0
  C  C20  4  0.48611500  0.51388500  0.56106500  1.0
