# generated using pymatgen
data_C
_symmetry_space_group_name_H-M   Fm-3
_cell_length_a   9.91610912
_cell_length_b   9.91610912
_cell_length_c   9.91610912
_cell_angle_alpha   60.00000000
_cell_angle_beta   60.00000000
_cell_angle_gamma   60.00000000
_symmetry_Int_Tables_number   202
_chemical_formula_structural   C
_chemical_formula_sum   C60
_cell_volume   689.45971241
_cell_formula_units_Z   60
loop_
 _symmetry_equiv_pos_site_id
 _symmetry_equiv_pos_as_xyz
  1  'x, y, z'
  2  '-x, -y, -z'
  3  '-x-y-z, z, y'
  4  'x+y+z, -z, -y'
  5  'y, x, -x-y-z'
  6  '-y, -x, x+y+z'
  7  'z, -x-y-z, x'
  8  '-z, x+y+z, -x'
  9  'z, y, -x-y-z'
  10  '-z, -y, x+y+z'
  11  'y, z, x'
  12  '-y, -z, -x'
  13  '-x-y-z, x, z'
  14  'x+y+z, -x, -z'
  15  'x, -x-y-z, y'
  16  '-x, x+y+z, -y'
  17  '-x-y-z, y, x'
  18  'x+y+z, -y, -x'
  19  'x, z, -x-y-z'
  20  '-x, -z, x+y+z'
  21  'z, x, y'
  22  '-z, -x, -y'
  23  'y, -x-y-z, z'
  24  '-y, x+y+z, -z'
loop_
 _atom_site_type_symbol
 _atom_site_label
 _atom_site_symmetry_multiplicity
 _atom_site_fract_x
 _atom_site_fract_y
 _atom_site_fract_z
 _atom_site_occupancy
  C  C0  24  0.09838200  0.46888700  0.69856200  1.0
  C  C1  24  0.09854300  0.53057200  0.79784300  1.0
  C  C2  12  0.20094100  0.30099800  0.69900200  1.0
