# generated using pymatgen
data_C
_symmetry_space_group_name_H-M   Cmmm
_cell_length_a   3.70643751
_cell_length_b   3.70643751
_cell_length_c   4.27273600
_cell_angle_alpha   90.00000000
_cell_angle_beta   90.00000000
_cell_angle_gamma   97.74707487
_symmetry_Int_Tables_number   65
_chemical_formula_structural   C
_chemical_formula_sum   C8
_cell_volume   58.16173095
_cell_formula_units_Z   8
loop_
 _symmetry_equiv_pos_site_id
 _symmetry_equiv_pos_as_xyz
  1  'x, y, z'
  2  '-x, -y, -z'
  3  '-x, -y, z'
  4  'x, y, -z'
  5  'y, x, -z'
  6  '-y, -x, z'
  7  '-y, -x, -z'
  8  'y, x, z'
loop_
 _atom_site_type_symbol
 _atom_site_label
 _atom_site_symmetry_multiplicity
 _atom_site_fract_x
 _atom_site_fract_y
 _atom_site_fract_z
 _atom_site_occupancy
  C  C0  4  0.00000000  0.50000000  0.15704300  1.0
  C  C1  4  0.14923300  0.85076700  0.31894100  1.0
