# generated using pymatgen
data_C
_symmetry_space_group_name_H-M   I4_132
_cell_length_a   3.57127053
_cell_length_b   3.57127053
_cell_length_c   3.57127053
_cell_angle_alpha   109.47122063
_cell_angle_beta   109.47122064
_cell_angle_gamma   109.47122064
_symmetry_Int_Tables_number   214
_chemical_formula_structural   C
_chemical_formula_sum   C4
_cell_volume   35.06278101
_cell_formula_units_Z   4
loop_
 _symmetry_equiv_pos_site_id
 _symmetry_equiv_pos_as_xyz
  1  'x, y, z'
  2  '-y+z, z+1/2, -x+z'
  3  '-x+1/2, -x+z+1/2, -x+y'
  4  'y-z+1/2, -x+y+1/2, y+1/2'
  5  '-y+z, -y+1/2, x-y+1/2'
  6  '-x+1/2, -z, -y'
  7  'y-z+1/2, x-z, -z+1/2'
  8  'x, x-y, x-z+1/2'
  9  'z+1/2, x, y+1/2'
  10  '-x+z+1/2, -y+z, z'
  11  '-x+y+1/2, -x+1/2, -x+z'
  12  'y, y-z+1/2, -x+y'
  13  'x-y, -y+z, -y'
  14  '-y+1/2, -x+1/2, -z+1/2'
  15  '-z, y-z+1/2, x-z+1/2'
  16  'x-z, x, x-y+1/2'
  17  'y, z+1/2, x+1/2'
  18  'z+1/2, -x+z+1/2, -y+z+1/2'
  19  '-x+z+1/2, -x+y+1/2, -x'
  20  '-x+y+1/2, y, y-z'
  21  '-y+1/2, x-y, -y+z+1/2'
  22  '-z, -y+1/2, -x'
  23  'x-z, -z, y-z'
  24  'x-y, x-z, x+1/2'
loop_
 _atom_site_type_symbol
 _atom_site_label
 _atom_site_symmetry_multiplicity
 _atom_site_fract_x
 _atom_site_fract_y
 _atom_site_fract_z
 _atom_site_occupancy
  C  C0  4  0.00000000  0.50000000  0.25000000  1.0
