# generated using pymatgen
data_C
_symmetry_space_group_name_H-M   I4/mmm
_cell_length_a   2.83990600
_cell_length_b   6.86513898
_cell_length_c   6.86513898
_cell_angle_alpha   87.54809033
_cell_angle_beta   78.06304378
_cell_angle_gamma   78.06304379
_symmetry_Int_Tables_number   139
_chemical_formula_structural   C
_chemical_formula_sum   C12
_cell_volume   128.11914071
_cell_formula_units_Z   12
loop_
 _symmetry_equiv_pos_site_id
 _symmetry_equiv_pos_as_xyz
  1  'x, y, z'
  2  '-x, -y, -z'
  3  'x+y, z, -y'
  4  '-x-y, -z, y'
  5  'x+y+z, -y, -z'
  6  '-x-y-z, y, z'
  7  'x+z, -z, y'
  8  '-x-z, z, -y'
  9  '-x, -z, -y'
  10  'x, z, y'
  11  '-x-y, y, -z'
  12  'x+y, -y, z'
  13  '-x-y-z, z, y'
  14  'x+y+z, -z, -y'
  15  '-x-z, -y, z'
  16  'x+z, y, -z'
loop_
 _atom_site_type_symbol
 _atom_site_label
 _atom_site_symmetry_multiplicity
 _atom_site_fract_x
 _atom_site_fract_y
 _atom_site_fract_z
 _atom_site_occupancy
  C  C0  8  0.06361400  0.17435800  0.69841400  1.0
  C  C1  4  0.21471600  0.57056800  0.00000000  1.0
