# generated using pymatgen
data_C
_symmetry_space_group_name_H-M   P1
_cell_length_a   10.12338545
_cell_length_b   10.24840470
_cell_length_c   10.90326092
_cell_angle_alpha   88.88936686
_cell_angle_beta   85.14594390
_cell_angle_gamma   90.05367883
_symmetry_Int_Tables_number   1
_chemical_formula_structural   C
_chemical_formula_sum   C100
_cell_volume   1126.92492348
_cell_formula_units_Z   100
loop_
 _symmetry_equiv_pos_site_id
 _symmetry_equiv_pos_as_xyz
  1  'x, y, z'
loop_
 _atom_site_type_symbol
 _atom_site_label
 _atom_site_symmetry_multiplicity
 _atom_site_fract_x
 _atom_site_fract_y
 _atom_site_fract_z
 _atom_site_occupancy
  C  C0  1  0.02390000  0.11193900  0.95605300  1.0
  C  C1  1  0.08318300  0.67966400  0.82365800  1.0
  C  C2  1  0.08879300  0.26435400  0.32716900  1.0
  C  C3  1  0.08914400  0.72172400  0.94500800  1.0
  C  C4  1  0.09266700  0.78692200  0.17673300  1.0
  C  C5  1  0.09270200  0.21768200  0.61309700  1.0
  C  C6  1  0.09528700  0.14548500  0.15685000  1.0
  C  C7  1  0.10017200  0.74476300  0.05357600  1.0
  C  C8  1  0.11023900  0.96797100  0.78192400  1.0
  C  C9  1  0.11244900  0.07555500  0.85378400  1.0
  C  C10  1  0.11651900  0.58322800  0.55584600  1.0
  C  C11  1  0.12104500  0.35857900  0.42061700  1.0
  C  C12  1  0.12711700  0.12102100  0.03450700  1.0
  C  C13  1  0.16930600  0.30222400  0.54124700  1.0
  C  C14  1  0.17188300  0.19154300  0.25232600  1.0
  C  C15  1  0.17285300  0.73568100  0.73446300  1.0
  C  C16  1  0.18952400  0.73160300  0.26269200  1.0
  C  C17  1  0.19132700  0.58777900  0.28208200  1.0
  C  C18  1  0.20775900  0.48505000  0.21109600  1.0
  C  C19  1  0.20781100  0.87359200  0.77073000  1.0
  C  C20  1  0.21000200  0.51418500  0.61103900  1.0
  C  C21  1  0.22274600  0.66373400  0.61868000  1.0
  C  C22  1  0.23127000  0.45284500  0.34376400  1.0
  C  C23  1  0.23219600  0.42542300  0.10010300  1.0
  C  C24  1  0.23387700  0.11989400  0.92477200  1.0
  C  C25  1  0.25357500  0.38379200  0.61186500  1.0
  C  C26  1  0.25584100  0.35063300  0.01503400  1.0
  C  C27  1  0.26950600  0.26645300  0.91493800  1.0
  C  C28  1  0.29300000  0.13554300  0.26725500  1.0
  C  C29  1  0.29468600  0.79701400  0.30436400  1.0
  C  C30  1  0.30901100  0.31059000  0.80534200  1.0
  C  C31  1  0.33333333  0.91127600  0.81207700  1.0
  C  C32  1  0.34821800  0.72724700  0.54653500  1.0
  C  C33  1  0.35218800  0.02941900  0.88563900  1.0
  C  C34  1  0.35315000  0.03205500  0.25632200  1.0
  C  C35  1  0.35339300  0.73713800  0.40612900  1.0
  C  C36  1  0.35421100  0.32371900  0.69029600  1.0
  C  C37  1  0.37092500  0.41684400  0.36566500  1.0
  C  C38  1  0.38335200  0.90216400  0.24518600  1.0
  C  C39  1  0.43871000  0.65634500  0.44645700  1.0
  C  C40  1  0.43889700  0.84661700  0.74914000  1.0
  C  C41  1  0.43891800  0.80964300  0.61379200  1.0
  C  C42  1  0.45253700  0.36766800  0.44564300  1.0
  C  C43  1  0.46975000  0.08629200  0.88955600  1.0
  C  C44  1  0.49451400  0.29238200  0.65580100  1.0
  C  C45  1  0.50544600  0.87085700  0.19329800  1.0
  C  C46  1  0.51917500  0.45350900  0.34358400  1.0
  C  C47  1  0.53602400  0.33607400  0.53772400  1.0
  C  C48  1  0.54446600  0.56673900  0.42662700  1.0
  C  C49  1  0.56420400  0.17566800  0.86613100  1.0
  C  C50  1  0.56601600  0.85906800  0.55427300  1.0
  C  C51  1  0.56760200  0.81011400  0.76564500  1.0
  C  C52  1  0.58995900  0.23052200  0.73464300  1.0
  C  C53  1  0.60012700  0.75252100  0.63785200  1.0
  C  C54  1  0.60834600  0.12933000  0.30918600  1.0
  C  C55  1  0.61579800  0.23809500  0.22506400  1.0
  C  C56  1  0.61734400  0.03961900  0.38587000  1.0
  C  C57  1  0.62886800  0.86920700  0.17117500  1.0
  C  C58  1  0.63182100  0.54377000  0.51724600  1.0
  C  C59  1  0.63698500  0.25246000  0.09657200  1.0
  C  C60  1  0.64159700  0.23630300  0.95729700  1.0
  C  C61  1  0.64569600  0.92523600  0.45926600  1.0
  C  C62  1  0.64585900  0.37807400  0.27986900  1.0
  C  C63  1  0.66245700  0.62704100  0.61552300  1.0
  C  C64  1  0.66849400  0.82640900  0.83929000  1.0
  C  C65  1  0.67562700  0.40075500  0.51073500  1.0
  C  C66  1  0.71199900  0.37317200  0.06805100  1.0
  C  C67  1  0.71361100  0.45207300  0.16643000  1.0
  C  C68  1  0.72018500  0.23293700  0.68325900  1.0
  C  C69  1  0.73041000  0.34508400  0.93702900  1.0
  C  C70  1  0.74009100  0.37237800  0.38300000  1.0
  C  C71  1  0.75260500  0.58161500  0.16984300  1.0
  C  C72  1  0.75890700  0.83586400  0.17294300  1.0
  C  C73  1  0.76043300  0.58177000  0.69783300  1.0
  C  C74  1  0.76244000  0.35502700  0.60984500  1.0
  C  C75  1  0.76710600  0.86134200  0.44067700  1.0
  C  C76  1  0.77396400  0.88069500  0.89305700  1.0
  C  C77  1  0.77490200  0.69881800  0.17433900  1.0
  C  C78  1  0.77528800  0.44629600  0.71418100  1.0
  C  C79  1  0.79494400  0.76772200  0.82767500  1.0
  C  C80  1  0.81297100  0.40968000  0.83850800  1.0
  C  C81  1  0.83227200  0.00909300  0.90257200  1.0
  C  C82  1  0.84198400  0.16268900  0.70504200  1.0
  C  C83  1  0.84408100  0.07466600  0.79603600  1.0
  C  C84  1  0.84680900  0.66091800  0.76658500  1.0
  C  C85  1  0.84964200  0.76847000  0.44940300  1.0
  C  C86  1  0.87229700  0.92378300  0.17773800  1.0
  C  C87  1  0.87577300  0.34950800  0.36812100  1.0
  C  C88  1  0.87592700  0.06567300  0.13210000  1.0
  C  C89  1  0.89678600  0.07020000  0.00193800  1.0
  C  C90  1  0.90516400  0.33589900  0.56595000  1.0
  C  C91  1  0.92115500  0.48201700  0.86267300  1.0
  C  C92  1  0.92438500  0.66735300  0.45899600  1.0
  C  C93  1  0.95391400  0.25746300  0.29218800  1.0
  C  C94  1  0.95521900  0.16238500  0.19593600  1.0
  C  C95  1  0.95532300  0.22457700  0.62439500  1.0
  C  C96  1  0.96526500  0.59634100  0.80953800  1.0
  C  C97  1  0.97474500  0.41385900  0.46225800  1.0
  C  C98  1  0.98974100  0.86916300  0.20016100  1.0
  C  C99  1  0.99972800  0.56594400  0.48993900  1.0
