# generated using pymatgen
data_C
_symmetry_space_group_name_H-M   P2_1
_cell_length_a   6.07398400
_cell_length_b   8.52385200
_cell_length_c   9.46272312
_cell_angle_alpha   98.22659272
_cell_angle_beta   90.00000000
_cell_angle_gamma   90.00000000
_symmetry_Int_Tables_number   4
_chemical_formula_structural   C
_chemical_formula_sum   C28
_cell_volume   484.87925380
_cell_formula_units_Z   28
loop_
 _symmetry_equiv_pos_site_id
 _symmetry_equiv_pos_as_xyz
  1  'x, y, z'
  2  'x+1/2, -y, -z'
loop_
 _atom_site_type_symbol
 _atom_site_label
 _atom_site_symmetry_multiplicity
 _atom_site_fract_x
 _atom_site_fract_y
 _atom_site_fract_z
 _atom_site_occupancy
  C  C0  2  0.09985800  0.83909800  0.31707000  1.0
  C  C1  2  0.12507400  0.77545200  0.17286500  1.0
  C  C2  2  0.15678200  0.64103000  0.85114800  1.0
  C  C3  2  0.15903500  0.58171100  0.70521700  1.0
  C  C4  2  0.26760700  0.04199200  0.74063600  1.0
  C  C5  2  0.27654400  0.09541300  0.87321300  1.0
  C  C6  2  0.28226000  0.68218600  0.09409000  1.0
  C  C7  2  0.29581500  0.62943400  0.96552900  1.0
  C  C8  2  0.30233600  0.23328500  0.18936300  1.0
  C  C9  2  0.32078000  0.29259000  0.32017900  1.0
  C  C10  2  0.42670800  0.07673700  0.65537200  1.0
  C  C11  2  0.44558700  0.19066200  0.93667600  1.0
  C  C12  2  0.45912600  0.25466800  0.08649900  1.0
  C  C13  2  0.49298900  0.38006200  0.36557900  1.0
