# generated using pymatgen
data_C
_symmetry_space_group_name_H-M   Cmme
_cell_length_a   2.46674200
_cell_length_b   2.46870967
_cell_length_c   8.14990300
_cell_angle_alpha   90.00000000
_cell_angle_beta   90.00000000
_cell_angle_gamma   119.97363755
_symmetry_Int_Tables_number   67
_chemical_formula_structural   C
_chemical_formula_sum   C4
_cell_volume   42.99244310
_cell_formula_units_Z   4
loop_
 _symmetry_equiv_pos_site_id
 _symmetry_equiv_pos_as_xyz
  1  'x, y, z'
  2  '-x, -y, -z'
  3  '-x+1/2, -y, z'
  4  'x+1/2, y, -z'
  5  'x-y, -y, -z'
  6  '-x+y, y, z'
  7  '-x+y+1/2, y, -z'
  8  'x-y+1/2, -y, z'
loop_
 _atom_site_type_symbol
 _atom_site_label
 _atom_site_symmetry_multiplicity
 _atom_site_fract_x
 _atom_site_fract_y
 _atom_site_fract_z
 _atom_site_occupancy
  C  C0  4  0.08325900  0.16651800  0.76587600  1.0
