# generated using pymatgen
data_C
_symmetry_space_group_name_H-M   Pnnm
_cell_length_a   9.18666900
_cell_length_b   10.20196700
_cell_length_c   14.64883900
_cell_angle_alpha   90.00000000
_cell_angle_beta   90.00000000
_cell_angle_gamma   90.00000000
_symmetry_Int_Tables_number   58
_chemical_formula_structural   C
_chemical_formula_sum   C120
_cell_volume   1372.91986543
_cell_formula_units_Z   120
loop_
 _symmetry_equiv_pos_site_id
 _symmetry_equiv_pos_as_xyz
  1  'x, y, z'
  2  '-x, -y, -z'
  3  'x, -y, -z'
  4  '-x, y, z'
  5  '-x+1/2, y+1/2, -z+1/2'
  6  'x+1/2, -y+1/2, z+1/2'
  7  '-x+1/2, -y+1/2, z+1/2'
  8  'x+1/2, y+1/2, -z+1/2'
loop_
 _atom_site_type_symbol
 _atom_site_label
 _atom_site_symmetry_multiplicity
 _atom_site_fract_x
 _atom_site_fract_y
 _atom_site_fract_z
 _atom_site_occupancy
  C  C0  8  0.07623700  0.21831800  0.82109400  1.0
  C  C1  8  0.07887100  0.33781500  0.96748700  1.0
  C  C2  8  0.07892000  0.00851700  0.23746600  1.0
  C  C3  8  0.08774000  0.43990100  0.53548800  1.0
  C  C4  8  0.12714600  0.13650500  0.20839800  1.0
  C  C5  8  0.12739000  0.31809300  0.06028500  1.0
  C  C6  8  0.15516000  0.10244300  0.79203800  1.0
  C  C7  8  0.15518700  0.27826400  0.89593700  1.0
  C  C8  8  0.16746900  0.31675100  0.50294100  1.0
  C  C9  8  0.16771000  0.46622900  0.62521200  1.0
  C  C10  8  0.21670300  0.30004800  0.41415000  1.0
  C  C11  8  0.21682900  0.41069100  0.34886800  1.0
  C  C12  8  0.24983300  0.14699900  0.15188100  1.0
  C  C13  8  0.24988800  0.26042200  0.57652600  1.0
  C  C14  4  0.00000000  0.21661700  0.19063300  1.0
  C  C15  4  0.00000000  0.30577100  0.11811400  1.0
