# generated using pymatgen
data_C
_symmetry_space_group_name_H-M   R-3m
_cell_length_a   2.52099460
_cell_length_b   2.52099460
_cell_length_c   10.47059902
_cell_angle_alpha   83.08570877
_cell_angle_beta   83.08570877
_cell_angle_gamma   59.99998418
_symmetry_Int_Tables_number   166
_chemical_formula_structural   C
_chemical_formula_sum   C10
_cell_volume   57.07013077
_cell_formula_units_Z   10
loop_
 _symmetry_equiv_pos_site_id
 _symmetry_equiv_pos_as_xyz
  1  'x, y, z'
  2  '-x, -y, -z'
  3  '-x-y-z, x, z'
  4  'x+y+z, -x, -z'
  5  'y, -x-y-z, z'
  6  '-y, x+y+z, -z'
  7  '-x, x+y+z, -z'
  8  'x, -x-y-z, z'
  9  'x+y+z, -y, -z'
  10  '-x-y-z, y, z'
  11  '-y, -x, -z'
  12  'y, x, z'
loop_
 _atom_site_type_symbol
 _atom_site_label
 _atom_site_symmetry_multiplicity
 _atom_site_fract_x
 _atom_site_fract_y
 _atom_site_fract_z
 _atom_site_occupancy
  C  C0  2  0.02481100  0.02481100  0.92556700  1.0
  C  C1  2  0.10864000  0.10864000  0.67408000  1.0
  C  C2  2  0.15835300  0.15835300  0.52494100  1.0
  C  C3  2  0.37483800  0.37483800  0.87548600  1.0
  C  C4  2  0.42531100  0.42531100  0.72406700  1.0
