# generated using pymatgen
data_C
_symmetry_space_group_name_H-M   R-3m
_cell_length_a   2.52587546
_cell_length_b   2.52587546
_cell_length_c   14.55335385
_cell_angle_alpha   85.02163090
_cell_angle_beta   85.02163090
_cell_angle_gamma   60.00001426
_symmetry_Int_Tables_number   166
_chemical_formula_structural   C
_chemical_formula_sum   C14
_cell_volume   80.00668325
_cell_formula_units_Z   14
loop_
 _symmetry_equiv_pos_site_id
 _symmetry_equiv_pos_as_xyz
  1  'x, y, z'
  2  '-x, -y, -z'
  3  '-x-y-z, x, z'
  4  'x+y+z, -x, -z'
  5  'y, -x-y-z, z'
  6  '-y, x+y+z, -z'
  7  '-x, x+y+z, -z'
  8  'x, -x-y-z, z'
  9  'x+y+z, -y, -z'
  10  '-x-y-z, y, z'
  11  '-y, -x, -z'
  12  'y, x, z'
loop_
 _atom_site_type_symbol
 _atom_site_label
 _atom_site_symmetry_multiplicity
 _atom_site_fract_x
 _atom_site_fract_y
 _atom_site_fract_z
 _atom_site_occupancy
  C  C0  2  0.01780400  0.01780400  0.94658800  1.0
  C  C1  2  0.17257500  0.17257500  0.48227500  1.0
  C  C2  2  0.20813800  0.20813800  0.37558600  1.0
  C  C3  2  0.26811300  0.26811300  0.19566100  1.0
  C  C4  2  0.30369500  0.30369500  0.08891500  1.0
  C  C5  2  0.41046400  0.41046400  0.76860800  1.0
  C  C6  2  0.44661300  0.44661300  0.66016100  1.0
