# generated using pymatgen
data_C
_symmetry_space_group_name_H-M   I4/mmm
_cell_length_a   2.51466400
_cell_length_b   3.34210134
_cell_length_c   3.34210134
_cell_angle_alpha   81.86337944
_cell_angle_beta   67.90088103
_cell_angle_gamma   67.90088103
_symmetry_Int_Tables_number   139
_chemical_formula_structural   C
_chemical_formula_sum   C4
_cell_volume   24.11250357
_cell_formula_units_Z   4
loop_
 _symmetry_equiv_pos_site_id
 _symmetry_equiv_pos_as_xyz
  1  'x, y, z'
  2  '-x, -y, -z'
  3  'x+y, z, -y'
  4  '-x-y, -z, y'
  5  'x+y+z, -y, -z'
  6  '-x-y-z, y, z'
  7  'x+z, -z, y'
  8  '-x-z, z, -y'
  9  '-x-y-z, z, y'
  10  'x+y+z, -z, -y'
  11  '-x-z, -y, z'
  12  'x+z, y, -z'
  13  '-x, -z, -y'
  14  'x, z, y'
  15  '-x-y, y, -z'
  16  'x+y, -y, z'
loop_
 _atom_site_type_symbol
 _atom_site_label
 _atom_site_symmetry_multiplicity
 _atom_site_fract_x
 _atom_site_fract_y
 _atom_site_fract_z
 _atom_site_occupancy
  C  C0  4  0.18028800  0.00000000  0.63942400  1.0
