# generated using pymatgen
data_C
_symmetry_space_group_name_H-M   Pnma
_cell_length_a   5.91726900
_cell_length_b   9.10502400
_cell_length_c   18.94352000
_cell_angle_alpha   90.00000000
_cell_angle_beta   90.00000000
_cell_angle_gamma   90.00000000
_symmetry_Int_Tables_number   62
_chemical_formula_structural   C
_chemical_formula_sum   C52
_cell_volume   1020.61768296
_cell_formula_units_Z   52
loop_
 _symmetry_equiv_pos_site_id
 _symmetry_equiv_pos_as_xyz
  1  'x, y, z'
  2  '-x, -y, -z'
  3  'x+1/2, -y+1/2, -z'
  4  '-x+1/2, y+1/2, z'
  5  '-x+1/2, y+1/2, -z+1/2'
  6  'x+1/2, -y+1/2, z+1/2'
  7  '-x, -y, z+1/2'
  8  'x, y, -z+1/2'
loop_
 _atom_site_type_symbol
 _atom_site_label
 _atom_site_symmetry_multiplicity
 _atom_site_fract_x
 _atom_site_fract_y
 _atom_site_fract_z
 _atom_site_occupancy
  C  C0  8  0.01577500  0.18066000  0.07332200  1.0
  C  C1  8  0.07789400  0.86029600  0.71173500  1.0
  C  C2  8  0.12473400  0.23277300  0.18694100  1.0
  C  C3  8  0.15589900  0.24624900  0.11452700  1.0
  C  C4  8  0.15679700  0.89863000  0.59434300  1.0
  C  C5  8  0.20758800  0.92205800  0.65981100  1.0
  C  C6  4  0.22625300  0.27890000  0.25000000  1.0
