# generated using pymatgen
data_Th2C2.9
_symmetry_space_group_name_H-M   C2/c
_cell_length_a   3.98753222
_cell_length_b   3.98753222
_cell_length_c   6.71096069
_cell_angle_alpha   78.21459792
_cell_angle_beta   78.21459792
_cell_angle_gamma   65.10008532
_symmetry_Int_Tables_number   15
_chemical_formula_structural   Th2C2.9
_chemical_formula_sum   'Th2 C2.9'
_cell_volume   93.90371345
_cell_formula_units_Z   1
loop_
 _symmetry_equiv_pos_site_id
 _symmetry_equiv_pos_as_xyz
  1  'x, y, z'
  2  '-x, -y, -z'
  3  '-y, -x, -z+1/2'
  4  'y, x, z+1/2'
loop_
 _atom_site_type_symbol
 _atom_site_label
 _atom_site_symmetry_multiplicity
 _atom_site_fract_x
 _atom_site_fract_y
 _atom_site_fract_z
 _atom_site_occupancy
  Th  Th0  2  0.20892900  0.79107100  0.75000000  1.0
  C  C1  4  0.16944500  0.43239200  0.44743500  0.725
