# generated using pymatgen
data_Cr4C
_symmetry_space_group_name_H-M   Pnma
_cell_length_a   4.52527000
_cell_length_b   5.18603800
_cell_length_c   6.65882100
_cell_angle_alpha   90.00000000
_cell_angle_beta   90.00000000
_cell_angle_gamma   90.00000000
_symmetry_Int_Tables_number   62
_chemical_formula_structural   Cr4C
_chemical_formula_sum   'Cr12 C3'
_cell_volume   156.27069069
_cell_formula_units_Z   3
loop_
 _symmetry_equiv_pos_site_id
 _symmetry_equiv_pos_as_xyz
  1  'x, y, z'
  2  '-x, -y, -z'
  3  'x+1/2, -y+1/2, -z'
  4  '-x+1/2, y+1/2, z'
  5  '-x+1/2, y+1/2, -z+1/2'
  6  'x+1/2, -y+1/2, z+1/2'
  7  '-x, -y, z+1/2'
  8  'x, y, -z+1/2'
loop_
 _atom_site_type_symbol
 _atom_site_label
 _atom_site_symmetry_multiplicity
 _atom_site_fract_x
 _atom_site_fract_y
 _atom_site_fract_z
 _atom_site_occupancy
  Cr  Cr0  8  0.15767900  0.17800200  0.05963800  1.0
  Cr  Cr1  4  0.15847500  0.46909300  0.75000000  1.0
  C  C2  4  0.06785300  0.87388300  0.25000000  0.75
