# generated using pymatgen
data_Sr8Y4Cu11CO28
_symmetry_space_group_name_H-M   Amm2
_cell_length_a   3.87579000
_cell_length_b   13.70665416
_cell_length_c   13.70665416
_cell_angle_alpha   112.26318629
_cell_angle_beta   90.00000000
_cell_angle_gamma   90.00000000
_symmetry_Int_Tables_number   38
_chemical_formula_structural   Sr8Y4Cu11CO28
_chemical_formula_sum   'Sr8 Y4 Cu11 C1 O28'
_cell_volume   673.87240588
_cell_formula_units_Z   1
loop_
 _symmetry_equiv_pos_site_id
 _symmetry_equiv_pos_as_xyz
  1  'x, y, z'
  2  '-x, z, y'
  3  '-x, y, z'
  4  'x, z, y'
loop_
 _atom_site_type_symbol
 _atom_site_label
 _atom_site_symmetry_multiplicity
 _atom_site_fract_x
 _atom_site_fract_y
 _atom_site_fract_z
 _atom_site_occupancy
  Sr  Sr0  2  0.50000000  0.02683700  0.21008900  1.0
  Sr  Sr1  2  0.50000000  0.25983100  0.44435800  1.0
  Sr  Sr2  2  0.50000000  0.56002500  0.73760300  1.0
  Sr  Sr3  2  0.50000000  0.79078500  0.97383600  1.0
  Y  Y4  2  0.50000000  0.12899600  0.62191400  1.0
  Y  Y5  2  0.50000000  0.37863700  0.86954300  1.0
  Cu  Cu6  2  0.00000000  0.06854400  0.42379500  1.0
  Cu  Cu7  2  0.00000000  0.18026300  0.81988300  1.0
  Cu  Cu8  2  0.00000000  0.32822400  0.67102600  1.0
  Cu  Cu9  2  0.00000000  0.57667200  0.93001800  1.0
  Cu  Cu10  1  0.00000000  0.24005800  0.24005800  1.0
  Cu  Cu11  1  0.00000000  0.76300700  0.76300700  1.0
  Cu  Cu12  1  0.00000000  0.99998600  0.99998600  1.0
  C  C13  1  0.00000000  0.49823500  0.49823500  1.0
  O  O14  2  0.00000000  0.07056000  0.68201500  1.0
  O  O15  2  0.00000000  0.08297100  0.91667000  1.0
  O  O16  2  0.00000000  0.15464800  0.31952600  1.0
  O  O17  2  0.00000000  0.19444500  0.55345400  1.0
  O  O18  2  0.00000000  0.31926400  0.92755200  1.0
  O  O19  2  0.00000000  0.40654600  0.50602700  1.0
  O  O20  2  0.00000000  0.44867700  0.80202400  1.0
  O  O21  2  0.00000000  0.67860100  0.84355700  1.0
  O  O22  2  0.50000000  0.06051000  0.43395000  1.0
  O  O23  2  0.50000000  0.19114900  0.80906600  1.0
  O  O24  2  0.50000000  0.32227700  0.67741700  1.0
  O  O25  2  0.50000000  0.56603200  0.93832200  1.0
  O  O26  1  0.00000000  0.58397800  0.58397800  1.0
  O  O27  1  0.50000000  0.00059100  0.00059100  1.0
  O  O28  1  0.50000000  0.25113500  0.25113500  1.0
  O  O29  1  0.50000000  0.75567000  0.75567000  1.0
