# generated using pymatgen
data_Nb2Cu0.67C1S2
_symmetry_space_group_name_H-M   P3m1
_cell_length_a   3.37069600
_cell_length_b   3.37069655
_cell_length_c   9.07378100
_cell_angle_alpha   90.00000000
_cell_angle_beta   90.00000000
_cell_angle_gamma   119.99999460
_symmetry_Int_Tables_number   156
_chemical_formula_structural   Nb2Cu0.67C1S2
_chemical_formula_sum   'Nb2 Cu0.67 C1 S2'
_cell_volume   89.28082417
_cell_formula_units_Z   1
loop_
 _symmetry_equiv_pos_site_id
 _symmetry_equiv_pos_as_xyz
  1  'x, y, z'
  2  '-y, x-y, z'
  3  '-x+y, -x, z'
  4  '-y, -x, z'
  5  '-x+y, y, z'
  6  'x, x-y, z'
loop_
 _atom_site_type_symbol
 _atom_site_label
 _atom_site_symmetry_multiplicity
 _atom_site_fract_x
 _atom_site_fract_y
 _atom_site_fract_z
 _atom_site_occupancy
  Nb  Nb0  1  0.00000000  0.00000000  0.12834700  1.0
  Nb  Nb1  1  0.33333333  0.66666667  0.88165900  1.0
  Cu  Cu2  1  0.33333333  0.66666667  0.55003500  0.6699999999999999
  C  C3  1  0.66666667  0.33333333  0.00260100  1.0
  S  S4  1  0.00000000  0.00000000  0.68930000  1.0
  S  S5  1  0.33333333  0.66666667  0.30805800  1.0
