# generated using pymatgen
data_Fe3C
_symmetry_space_group_name_H-M   I-42m
_cell_length_a   4.22412800
_cell_length_b   6.30850360
_cell_length_c   6.30850360
_cell_angle_alpha   83.56427185
_cell_angle_beta   70.43984523
_cell_angle_gamma   70.43984522
_symmetry_Int_Tables_number   121
_chemical_formula_structural   Fe3C
_chemical_formula_sum   'Fe12 C4'
_cell_volume   149.26549073
_cell_formula_units_Z   4
loop_
 _symmetry_equiv_pos_site_id
 _symmetry_equiv_pos_as_xyz
  1  'x, y, z'
  2  '-x-z, z, -y'
  3  'x+y+z, -y, -z'
  4  '-x-y, -z, y'
  5  '-x, -z, -y'
  6  'x+z, y, -z'
  7  '-x-y-z, z, y'
  8  'x+y, -y, z'
loop_
 _atom_site_type_symbol
 _atom_site_label
 _atom_site_symmetry_multiplicity
 _atom_site_fract_x
 _atom_site_fract_y
 _atom_site_fract_z
 _atom_site_occupancy
  Fe  Fe0  4  0.00643000  0.00000000  0.39149800  1.0
  Fe  Fe1  4  0.14391000  0.35609000  0.35609000  1.0
  Fe  Fe2  4  0.16323200  0.19622800  0.00000000  1.0
  C  C3  4  0.00000000  0.28999900  0.71000100  1.0
