# generated using pymatgen
data_Fe3C
_symmetry_space_group_name_H-M   Pnma
_cell_length_a   4.49084500
_cell_length_b   5.03018000
_cell_length_c   6.73930700
_cell_angle_alpha   90.00000000
_cell_angle_beta   90.00000000
_cell_angle_gamma   90.00000000
_symmetry_Int_Tables_number   62
_chemical_formula_structural   Fe3C
_chemical_formula_sum   'Fe12 C4'
_cell_volume   152.23931895
_cell_formula_units_Z   4
loop_
 _symmetry_equiv_pos_site_id
 _symmetry_equiv_pos_as_xyz
  1  'x, y, z'
  2  '-x, -y, -z'
  3  'x+1/2, -y+1/2, -z'
  4  '-x+1/2, y+1/2, z'
  5  '-x+1/2, y+1/2, -z+1/2'
  6  'x+1/2, -y+1/2, z+1/2'
  7  '-x, -y, z+1/2'
  8  'x, y, -z+1/2'
loop_
 _atom_site_type_symbol
 _atom_site_label
 _atom_site_symmetry_multiplicity
 _atom_site_fract_x
 _atom_site_fract_y
 _atom_site_fract_z
 _atom_site_occupancy
  Fe  Fe0  8  0.16789900  0.67737000  0.06837400  1.0
  Fe  Fe1  4  0.16288000  0.96333900  0.75000000  1.0
  C  C2  4  0.06093200  0.37699400  0.25000000  1.0
