# generated using pymatgen
data_Fe3C
_symmetry_space_group_name_H-M   I4/m
_cell_length_a   2.47102200
_cell_length_b   4.47977609
_cell_length_c   4.47977609
_cell_angle_alpha   85.63762567
_cell_angle_beta   73.99045503
_cell_angle_gamma   73.99045505
_symmetry_Int_Tables_number   87
_chemical_formula_structural   Fe3C
_chemical_formula_sum   'Fe3 C1'
_cell_volume   45.81745861
_cell_formula_units_Z   1
loop_
 _symmetry_equiv_pos_site_id
 _symmetry_equiv_pos_as_xyz
  1  'x, y, z'
  2  '-x, -y, -z'
  3  'x+y, z, -y'
  4  '-x-y, -z, y'
  5  'x+y+z, -y, -z'
  6  '-x-y-z, y, z'
  7  'x+z, -z, y'
  8  '-x-z, z, -y'
loop_
 _atom_site_type_symbol
 _atom_site_label
 _atom_site_symmetry_multiplicity
 _atom_site_fract_x
 _atom_site_fract_y
 _atom_site_fract_z
 _atom_site_occupancy
  Fe  Fe0  4  0.23659800  0.18912000  0.33768400  0.75
  C  C1  1  0.00000000  0.00000000  0.00000000  1.0
