# generated using pymatgen
data_Fe10C3.33333333
_symmetry_space_group_name_H-M   C2/c
_cell_length_a   4.52289400
_cell_length_b   5.00411700
_cell_length_c   6.21101831
_cell_angle_alpha   97.04069873
_cell_angle_beta   111.35235653
_cell_angle_gamma   90.00000000
_symmetry_Int_Tables_number   15
_chemical_formula_structural   Fe10C3.33333333
_chemical_formula_sum   'Fe10 C3.33333333'
_cell_volume   129.78653917
_cell_formula_units_Z   1
loop_
 _symmetry_equiv_pos_site_id
 _symmetry_equiv_pos_as_xyz
  1  'x, y, z'
  2  '-x, -y, -z'
  3  'x-z+1/2, -y+1/2, -z'
  4  '-x+z+1/2, y+1/2, z'
loop_
 _atom_site_type_symbol
 _atom_site_label
 _atom_site_symmetry_multiplicity
 _atom_site_fract_x
 _atom_site_fract_y
 _atom_site_fract_z
 _atom_site_occupancy
  Fe  Fe0  4  0.01428000  0.41622350  0.69483300  1.0
  Fe  Fe1  4  0.20338550  0.18805450  0.07347900  1.0
  Fe  Fe2  2  0.43132400  0.25000000  0.50000000  1.0
  C  C3  4  0.20042200  0.91875400  0.27345000  0.833333333325
