# generated using pymatgen
data_Fe3C
_symmetry_space_group_name_H-M   P6_322
_cell_length_a   4.32030300
_cell_length_b   4.66171000
_cell_length_c   4.66170975
_cell_angle_alpha   120.00000175
_cell_angle_beta   90.00000000
_cell_angle_gamma   90.00000000
_symmetry_Int_Tables_number   182
_chemical_formula_structural   Fe3C
_chemical_formula_sum   'Fe6 C2'
_cell_volume   81.30838099
_cell_formula_units_Z   2
loop_
 _symmetry_equiv_pos_site_id
 _symmetry_equiv_pos_as_xyz
  1  'x, y, z'
  2  'x+1/2, z, -y+z'
  3  'x, -y+z, -y'
  4  'x+1/2, -y, -z'
  5  'x, -z, y-z'
  6  'x+1/2, y-z, y'
  7  '-x+1/2, -y+z, z'
  8  '-x, -y, -y+z'
  9  '-x+1/2, -z, -y'
  10  '-x, y-z, -z'
  11  '-x+1/2, y, y-z'
  12  '-x, z, y'
loop_
 _atom_site_type_symbol
 _atom_site_label
 _atom_site_symmetry_multiplicity
 _atom_site_fract_x
 _atom_site_fract_y
 _atom_site_fract_z
 _atom_site_occupancy
  Fe  Fe0  6  0.00000000  0.00000000  0.32110600  1.0
  C  C1  2  0.25000000  0.33333333  0.66666667  1.0
