# generated using pymatgen
data_Hf0.9Nb0.1C1
_symmetry_space_group_name_H-M   P-6m2
_cell_length_a   2.91653000
_cell_length_b   3.23073000
_cell_length_c   3.23073065
_cell_angle_alpha   60.00000662
_cell_angle_beta   90.00000000
_cell_angle_gamma   90.00000000
_symmetry_Int_Tables_number   187
_chemical_formula_structural   Hf0.9Nb0.1C1
_chemical_formula_sum   'Hf0.9 Nb0.1 C1'
_cell_volume   26.36322432
_cell_formula_units_Z   1
loop_
 _symmetry_equiv_pos_site_id
 _symmetry_equiv_pos_as_xyz
  1  'x, y, z'
  2  '-x, z, -y-z'
  3  'x, -y-z, y'
  4  '-x, y, z'
  5  'x, z, -y-z'
  6  '-x, -y-z, y'
  7  '-x, y, -y-z'
  8  'x, z, y'
  9  '-x, -y-z, z'
  10  'x, y, -y-z'
  11  '-x, z, y'
  12  'x, -y-z, z'
loop_
 _atom_site_type_symbol
 _atom_site_label
 _atom_site_symmetry_multiplicity
 _atom_site_fract_x
 _atom_site_fract_y
 _atom_site_fract_z
 _atom_site_occupancy
  Hf  Hf0  1  0.00000000  0.00000000  0.00000000  0.9
  Nb  Nb1  1  0.00000000  0.00000000  0.00000000  0.1
  C  C2  1  0.50000000  0.33333333  0.33333333  1.0
