# generated using pymatgen
data_KC
_symmetry_space_group_name_H-M   I4/mmm
_cell_length_a   4.35835418
_cell_length_b   4.35835418
_cell_length_c   4.36414413
_cell_angle_alpha   90.23270302
_cell_angle_beta   119.83099783
_cell_angle_gamma   119.85647013
_symmetry_Int_Tables_number   139
_chemical_formula_structural   KC
_chemical_formula_sum   'K1 C1'
_cell_volume   58.77512196
_cell_formula_units_Z   1
loop_
 _symmetry_equiv_pos_site_id
 _symmetry_equiv_pos_as_xyz
  1  'x, y, z'
  2  '-x, -y, -z'
  3  '-y+z+1/2, z, -x+z+1/2'
  4  'y-z+1/2, -z, x-z+1/2'
  5  '-x, -x+z+1/2, -x+y+1/2'
  6  'x, x-z+1/2, x-y+1/2'
  7  'y-z+1/2, -x+y+1/2, y'
  8  '-y+z+1/2, x-y+1/2, -y'
  9  '-y+z+1/2, -y, x-y+1/2'
  10  'y-z+1/2, y, -x+y+1/2'
  11  '-x, -z, -y'
  12  'x, z, y'
  13  'y-z+1/2, x-z+1/2, -z'
  14  '-y+z+1/2, -x+z+1/2, z'
  15  'x, x-y+1/2, x-z+1/2'
  16  '-x, -x+y+1/2, -x+z+1/2'
loop_
 _atom_site_type_symbol
 _atom_site_label
 _atom_site_symmetry_multiplicity
 _atom_site_fract_x
 _atom_site_fract_y
 _atom_site_fract_z
 _atom_site_occupancy
  K  K0  1  0.50000000  0.00000000  0.00000000  1.0
  C  C1  1  0.50000000  0.50000000  0.50000000  1.0
