# generated using pymatgen
data_Mo1.2W0.8C2
_symmetry_space_group_name_H-M   Pmm2
_cell_length_a   2.84229200
_cell_length_b   2.93033700
_cell_length_c   5.06166300
_cell_angle_alpha   90.00000000
_cell_angle_beta   90.00000000
_cell_angle_gamma   90.00000000
_symmetry_Int_Tables_number   25
_chemical_formula_structural   Mo1.2W0.8C2
_chemical_formula_sum   'Mo1.2 W0.8 C2'
_cell_volume   42.15795038
_cell_formula_units_Z   1
loop_
 _symmetry_equiv_pos_site_id
 _symmetry_equiv_pos_as_xyz
  1  'x, y, z'
  2  '-x, -y, z'
  3  '-x, y, z'
  4  'x, -y, z'
loop_
 _atom_site_type_symbol
 _atom_site_label
 _atom_site_symmetry_multiplicity
 _atom_site_fract_x
 _atom_site_fract_y
 _atom_site_fract_z
 _atom_site_occupancy
  Mo  Mo0  1  0.50000000  0.50000000  0.16578600  1.0
  W  W1  1  0.50000000  0.00000000  0.66684000  0.8
  Mo  Mo2  1  0.50000000  0.00000000  0.66684000  0.2
  C  C3  1  0.00000000  0.00000000  0.99903000  1.0
  C  C4  1  0.00000000  0.50000000  0.50164500  1.0
