# generated using pymatgen
data_NbMo3C4
_symmetry_space_group_name_H-M   R-3m
_cell_length_a   3.10921844
_cell_length_b   3.10921844
_cell_length_c   10.47404602
_cell_angle_alpha   81.46433831
_cell_angle_beta   81.46433831
_cell_angle_gamma   59.99999071
_symmetry_Int_Tables_number   166
_chemical_formula_structural   NbMo3C4
_chemical_formula_sum   'Nb1 Mo3 C4'
_cell_volume   86.39202575
_cell_formula_units_Z   1
loop_
 _symmetry_equiv_pos_site_id
 _symmetry_equiv_pos_as_xyz
  1  'x, y, z'
  2  '-x, -y, -z'
  3  '-x-y-z, x, z'
  4  'x+y+z, -x, -z'
  5  'y, -x-y-z, z'
  6  '-y, x+y+z, -z'
  7  '-x, x+y+z, -z'
  8  'x, -x-y-z, z'
  9  'x+y+z, -y, -z'
  10  '-x-y-z, y, z'
  11  '-y, -x, -z'
  12  'y, x, z'
loop_
 _atom_site_type_symbol
 _atom_site_label
 _atom_site_symmetry_multiplicity
 _atom_site_fract_x
 _atom_site_fract_y
 _atom_site_fract_z
 _atom_site_occupancy
  Nb  Nb0  1  0.00000000  0.00000000  0.00000000  1.0
  Mo  Mo1  2  0.25040600  0.25040600  0.24878200  1.0
  Mo  Mo2  1  0.50000000  0.50000000  0.50000000  1.0
  C  C3  2  0.12542300  0.12542300  0.62373100  1.0
  C  C4  2  0.37623900  0.37623900  0.87128300  1.0
