# generated using pymatgen
data_Mo0.1W0.9C1
_symmetry_space_group_name_H-M   P-6m2
_cell_length_a   2.85290700
_cell_length_b   2.92832000
_cell_length_c   2.92832042
_cell_angle_alpha   60.00000479
_cell_angle_beta   90.00000000
_cell_angle_gamma   90.00000000
_symmetry_Int_Tables_number   187
_chemical_formula_structural   Mo0.1W0.9C1
_chemical_formula_sum   'Mo0.1 W0.9 C1'
_cell_volume   21.18631362
_cell_formula_units_Z   1
loop_
 _symmetry_equiv_pos_site_id
 _symmetry_equiv_pos_as_xyz
  1  'x, y, z'
  2  '-x, -y-z, y'
  3  'x, z, -y-z'
  4  '-x, y, z'
  5  'x, -y-z, y'
  6  '-x, z, -y-z'
  7  '-x, z, y'
  8  'x, y, -y-z'
  9  '-x, -y-z, z'
  10  'x, z, y'
  11  '-x, y, -y-z'
  12  'x, -y-z, z'
loop_
 _atom_site_type_symbol
 _atom_site_label
 _atom_site_symmetry_multiplicity
 _atom_site_fract_x
 _atom_site_fract_y
 _atom_site_fract_z
 _atom_site_occupancy
  W  W0  1  0.00000000  0.00000000  0.00000000  0.9
  Mo  Mo1  1  0.00000000  0.00000000  0.00000000  0.1
  C  C2  1  0.50000000  0.66666667  0.66666667  1.0
