# generated using pymatgen
data_Nb2CS2
_symmetry_space_group_name_H-M   R-3m
_cell_length_a   3.28308236
_cell_length_b   3.28308236
_cell_length_c   9.71685940
_cell_angle_alpha   80.27395818
_cell_angle_beta   80.27395818
_cell_angle_gamma   59.99999280
_symmetry_Int_Tables_number   166
_chemical_formula_structural   Nb2CS2
_chemical_formula_sum   'Nb2 C1 S2'
_cell_volume   88.96017335
_cell_formula_units_Z   1
loop_
 _symmetry_equiv_pos_site_id
 _symmetry_equiv_pos_as_xyz
  1  'x, y, z'
  2  '-x, -y, -z'
  3  '-x-y-z, x, z'
  4  'x+y+z, -x, -z'
  5  'y, -x-y-z, z'
  6  '-y, x+y+z, -z'
  7  '-x, x+y+z, -z'
  8  'x, -x-y-z, z'
  9  'x+y+z, -y, -z'
  10  '-x-y-z, y, z'
  11  '-y, -x, -z'
  12  'y, x, z'
loop_
 _atom_site_type_symbol
 _atom_site_label
 _atom_site_symmetry_multiplicity
 _atom_site_fract_x
 _atom_site_fract_y
 _atom_site_fract_z
 _atom_site_occupancy
  Nb  Nb0  2  0.37524400  0.37524400  0.87426800  1.0
  C  C1  1  0.00000000  0.00000000  0.00000000  1.0
  S  S2  2  0.23341100  0.23341100  0.29976700  1.0
