# generated using pymatgen
data_RhC
_symmetry_space_group_name_H-M   F-43m
_cell_length_a   3.25371650
_cell_length_b   3.25371650
_cell_length_c   3.25371650
_cell_angle_alpha   60.00001439
_cell_angle_beta   60.00000000
_cell_angle_gamma   60.00001442
_symmetry_Int_Tables_number   216
_chemical_formula_structural   RhC
_chemical_formula_sum   'Rh1 C1'
_cell_volume   24.35702410
_cell_formula_units_Z   1
loop_
 _symmetry_equiv_pos_site_id
 _symmetry_equiv_pos_as_xyz
  1  'x, y, z'
  2  'y, z, -x-y-z'
  3  'z, -x-y-z, x'
  4  '-x-y-z, x, y'
  5  'y, x, -x-y-z'
  6  'z, y, x'
  7  '-x-y-z, z, y'
  8  'x, -x-y-z, z'
  9  'z, x, y'
  10  '-x-y-z, y, z'
  11  'x, z, -x-y-z'
  12  'y, -x-y-z, x'
  13  '-x-y-z, y, x'
  14  'x, z, y'
  15  'y, -x-y-z, z'
  16  'z, x, -x-y-z'
  17  'y, z, x'
  18  'z, -x-y-z, y'
  19  '-x-y-z, x, z'
  20  'x, y, -x-y-z'
  21  'x, -x-y-z, y'
  22  'y, x, z'
  23  'z, y, -x-y-z'
  24  '-x-y-z, z, x'
loop_
 _atom_site_type_symbol
 _atom_site_label
 _atom_site_symmetry_multiplicity
 _atom_site_fract_x
 _atom_site_fract_y
 _atom_site_fract_z
 _atom_site_occupancy
  Rh  Rh0  1  0.00000000  0.00000000  0.00000000  1.0
  C  C1  1  0.75000000  0.75000000  0.75000000  1.0
