# generated using pymatgen
data_RuC
_symmetry_space_group_name_H-M   R-3m
_cell_length_a   2.78551125
_cell_length_b   2.78551125
_cell_length_c   6.48782950
_cell_angle_alpha   77.60372483
_cell_angle_beta   77.60372483
_cell_angle_gamma   60.00001788
_symmetry_Int_Tables_number   166
_chemical_formula_structural   RuC
_chemical_formula_sum   'Ru2 C2'
_cell_volume   42.23473340
_cell_formula_units_Z   2
loop_
 _symmetry_equiv_pos_site_id
 _symmetry_equiv_pos_as_xyz
  1  'x, y, z'
  2  '-x, -y, -z'
  3  '-x-y-z, x, z'
  4  'x+y+z, -x, -z'
  5  'y, -x-y-z, z'
  6  '-y, x+y+z, -z'
  7  '-x, x+y+z, -z'
  8  'x, -x-y-z, z'
  9  'x+y+z, -y, -z'
  10  '-x-y-z, y, z'
  11  '-y, -x, -z'
  12  'y, x, z'
loop_
 _atom_site_type_symbol
 _atom_site_label
 _atom_site_symmetry_multiplicity
 _atom_site_fract_x
 _atom_site_fract_y
 _atom_site_fract_z
 _atom_site_occupancy
  Ru  Ru0  2  0.22894700  0.22894700  0.31315900  1.0
  C  C1  2  0.03712400  0.03712400  0.88862800  1.0
