# generated using pymatgen
data_SiC
_symmetry_space_group_name_H-M   P3m1
_cell_length_a   3.09465400
_cell_length_b   3.09465488
_cell_length_c   25.30910000
_cell_angle_alpha   90.00000000
_cell_angle_beta   90.00000000
_cell_angle_gamma   119.99999055
_symmetry_Int_Tables_number   156
_chemical_formula_structural   SiC
_chemical_formula_sum   'Si10 C10'
_cell_volume   209.90930817
_cell_formula_units_Z   10
loop_
 _symmetry_equiv_pos_site_id
 _symmetry_equiv_pos_as_xyz
  1  'x, y, z'
  2  '-y, x-y, z'
  3  '-x+y, -x, z'
  4  '-y, -x, z'
  5  '-x+y, y, z'
  6  'x, x-y, z'
loop_
 _atom_site_type_symbol
 _atom_site_label
 _atom_site_symmetry_multiplicity
 _atom_site_fract_x
 _atom_site_fract_y
 _atom_site_fract_z
 _atom_site_occupancy
  Si  Si0  1  0.00000000  0.00000000  0.19997700  1.0
  Si  Si1  1  0.00000000  0.00000000  0.40004100  1.0
  Si  Si2  1  0.00000000  0.00000000  0.60004600  1.0
  Si  Si3  1  0.00000000  0.00000000  0.80008200  1.0
  Si  Si4  1  0.33333333  0.66666667  0.10009500  1.0
  Si  Si5  1  0.33333333  0.66666667  0.50003000  1.0
  Si  Si6  1  0.33333333  0.66666667  0.89998400  1.0
  Si  Si7  1  0.66666667  0.33333333  0.00003100  1.0
  Si  Si8  1  0.66666667  0.33333333  0.30002000  1.0
  Si  Si9  1  0.66666667  0.33333333  0.70001900  1.0
  C  C10  1  0.00000000  0.00000000  0.12499600  1.0
  C  C11  1  0.00000000  0.00000000  0.32511000  1.0
  C  C12  1  0.00000000  0.00000000  0.52511100  1.0
  C  C13  1  0.00000000  0.00000000  0.72507200  1.0
  C  C14  1  0.33333333  0.66666667  0.02508800  1.0
  C  C15  1  0.33333333  0.66666667  0.42482200  1.0
  C  C16  1  0.33333333  0.66666667  0.82501100  1.0
  C  C17  1  0.66666667  0.33333333  0.22481900  1.0
  C  C18  1  0.66666667  0.33333333  0.62482400  1.0
  C  C19  1  0.66666667  0.33333333  0.92482200  1.0
