# generated using pymatgen
data_SiC
_symmetry_space_group_name_H-M   R3m
_cell_length_a   3.09931210
_cell_length_b   3.09931210
_cell_length_c   20.28236391
_cell_angle_alpha   85.61809246
_cell_angle_beta   85.61809246
_cell_angle_gamma   59.99999792
_symmetry_Int_Tables_number   160
_chemical_formula_structural   SiC
_chemical_formula_sum   'Si8 C8'
_cell_volume   168.06723176
_cell_formula_units_Z   8
loop_
 _symmetry_equiv_pos_site_id
 _symmetry_equiv_pos_as_xyz
  1  'x, y, z'
  2  '-x-y-z, x, z'
  3  'y, -x-y-z, z'
  4  'x, -x-y-z, z'
  5  '-x-y-z, y, z'
  6  'y, x, z'
loop_
 _atom_site_type_symbol
 _atom_site_label
 _atom_site_symmetry_multiplicity
 _atom_site_fract_x
 _atom_site_fract_y
 _atom_site_fract_z
 _atom_site_occupancy
  Si  Si0  1  0.00011300  0.00011300  0.99966100  1.0
  Si  Si1  1  0.12514000  0.12514000  0.62458000  1.0
  Si  Si2  1  0.29169900  0.29169900  0.12490300  1.0
  Si  Si3  1  0.37519100  0.37519100  0.87442700  1.0
  Si  Si4  1  0.50007200  0.50007200  0.49978400  1.0
  Si  Si5  1  0.58337400  0.58337400  0.24987800  1.0
  Si  Si6  1  0.75017700  0.75017700  0.74946900  1.0
  Si  Si7  1  0.87503200  0.87503200  0.37490400  1.0
  C  C8  1  0.09382600  0.09382600  0.71852200  1.0
  C  C9  1  0.26039400  0.26039400  0.21881800  1.0
  C  C10  1  0.34387300  0.34387300  0.96838100  1.0
  C  C11  1  0.46878900  0.46878900  0.59363300  1.0
  C  C12  1  0.55210000  0.55210000  0.34370000  1.0
  C  C13  1  0.71884900  0.71884900  0.84345300  1.0
  C  C14  1  0.84367400  0.84367400  0.46897800  1.0
  C  C15  1  0.96869600  0.96869600  0.09391200  1.0
