# generated using pymatgen
data_SiC
_symmetry_space_group_name_H-M   R3m
_cell_length_a   3.09485074
_cell_length_b   3.09485074
_cell_length_c   48.12149677
_cell_angle_alpha   88.15724305
_cell_angle_beta   88.15724305
_cell_angle_gamma   60.00002690
_symmetry_Int_Tables_number   160
_chemical_formula_structural   SiC
_chemical_formula_sum   'Si19 C19'
_cell_volume   398.88683144
_cell_formula_units_Z   19
loop_
 _symmetry_equiv_pos_site_id
 _symmetry_equiv_pos_as_xyz
  1  'x, y, z'
  2  'y, -x-y-z, z'
  3  '-x-y-z, x, z'
  4  'x, -x-y-z, z'
  5  'y, x, z'
  6  '-x-y-z, y, z'
loop_
 _atom_site_type_symbol
 _atom_site_label
 _atom_site_symmetry_multiplicity
 _atom_site_fract_x
 _atom_site_fract_y
 _atom_site_fract_z
 _atom_site_occupancy
  Si  Si0  1  0.07018200  0.07018200  0.78945400  1.0
  Si  Si1  1  0.10527500  0.10527500  0.68417600  1.0
  Si  Si2  1  0.17541600  0.17541600  0.47375100  1.0
  Si  Si3  1  0.21051900  0.21051900  0.36844400  1.0
  Si  Si4  1  0.28069900  0.28069900  0.15790200  1.0
  Si  Si5  1  0.31578100  0.31578100  0.05265800  1.0
  Si  Si6  1  0.36842300  0.36842300  0.89473200  1.0
  Si  Si7  1  0.42106200  0.42106200  0.73681300  1.0
  Si  Si8  1  0.47367800  0.47367800  0.57896700  1.0
  Si  Si9  1  0.52630300  0.52630300  0.42109100  1.0
  Si  Si10  1  0.57892300  0.57892300  0.26323100  1.0
  Si  Si11  1  0.63158200  0.63158200  0.10525300  1.0
  Si  Si12  1  0.68420800  0.68420800  0.94737700  1.0
  Si  Si13  1  0.71931100  0.71931100  0.84206600  1.0
  Si  Si14  1  0.78946700  0.78946700  0.63159800  1.0
  Si  Si15  1  0.82455500  0.82455500  0.52633500  1.0
  Si  Si16  1  0.89471100  0.89471100  0.31586700  1.0
  Si  Si17  1  0.92981300  0.92981300  0.21056000  1.0
  Si  Si18  1  0.99999400  0.99999400  0.00001900  1.0
  C  C19  1  0.01317400  0.01317400  0.96047700  1.0
  C  C20  1  0.08332900  0.08332900  0.75001300  1.0
  C  C21  1  0.11842700  0.11842700  0.64472000  1.0
  C  C22  1  0.18857500  0.18857500  0.43427600  1.0
  C  C23  1  0.22368000  0.22368000  0.32895900  1.0
  C  C24  1  0.29386100  0.29386100  0.11841700  1.0
  C  C25  1  0.32893800  0.32893800  0.01318700  1.0
  C  C26  1  0.38161700  0.38161700  0.85514800  1.0
  C  C27  1  0.43424400  0.43424400  0.69726800  1.0
  C  C28  1  0.48685700  0.48685700  0.53942900  1.0
  C  C29  1  0.53949800  0.53949800  0.38150600  1.0
  C  C30  1  0.59211800  0.59211800  0.22364500  1.0
  C  C31  1  0.64475800  0.64475800  0.06572700  1.0
  C  C32  1  0.69736800  0.69736800  0.90789700  1.0
  C  C33  1  0.73247700  0.73247700  0.80256900  1.0
  C  C34  1  0.80261000  0.80261000  0.59216900  1.0
  C  C35  1  0.83771000  0.83771000  0.48687000  1.0
  C  C36  1  0.90786700  0.90786700  0.27639800  1.0
  C  C37  1  0.94299000  0.94299000  0.17103000  1.0
