# generated using pymatgen
data_SiC
_symmetry_space_group_name_H-M   R3m
_cell_length_a   3.09547747
_cell_length_b   3.09547747
_cell_length_c   17.79981499
_cell_angle_alpha   85.01168086
_cell_angle_beta   85.01168086
_cell_angle_gamma   60.00001143
_symmetry_Int_Tables_number   160
_chemical_formula_structural   SiC
_chemical_formula_sum   'Si7 C7'
_cell_volume   146.96072669
_cell_formula_units_Z   7
loop_
 _symmetry_equiv_pos_site_id
 _symmetry_equiv_pos_as_xyz
  1  'x, y, z'
  2  'y, -x-y-z, z'
  3  '-x-y-z, x, z'
  4  'y, x, z'
  5  '-x-y-z, y, z'
  6  'x, -x-y-z, z'
loop_
 _atom_site_type_symbol
 _atom_site_label
 _atom_site_symmetry_multiplicity
 _atom_site_fract_x
 _atom_site_fract_y
 _atom_site_fract_z
 _atom_site_occupancy
  Si  Si0  1  0.19043500  0.19043500  0.42869500  1.0
  Si  Si1  1  0.28573400  0.28573400  0.14279800  1.0
  Si  Si2  1  0.42854900  0.42854900  0.71435300  1.0
  Si  Si3  1  0.57142400  0.57142400  0.28572800  1.0
  Si  Si4  1  0.71422700  0.71422700  0.85731900  1.0
  Si  Si5  1  0.80952600  0.80952600  0.57142200  1.0
  Si  Si6  1  0.99998200  0.99998200  0.00005400  1.0
  C  C7  1  0.03571200  0.03571200  0.89286400  1.0
  C  C8  1  0.22615100  0.22615100  0.32154700  1.0
  C  C9  1  0.32145200  0.32145200  0.03564400  1.0
  C  C10  1  0.46437100  0.46437100  0.60688700  1.0
  C  C11  1  0.60724500  0.60724500  0.17826500  1.0
  C  C12  1  0.74994400  0.74994400  0.75016800  1.0
  C  C13  1  0.84524500  0.84524500  0.46426500  1.0
