# generated using pymatgen
data_SiC
_symmetry_space_group_name_H-M   R3m
_cell_length_a   3.09771981
_cell_length_b   3.09771981
_cell_length_c   73.25353179
_cell_angle_alpha   88.78845802
_cell_angle_beta   88.78845802
_cell_angle_gamma   60.00000395
_symmetry_Int_Tables_number   160
_chemical_formula_structural   SiC
_chemical_formula_sum   'Si29 C29'
_cell_volume   608.57485933
_cell_formula_units_Z   29
loop_
 _symmetry_equiv_pos_site_id
 _symmetry_equiv_pos_as_xyz
  1  'x, y, z'
  2  'y, -x-y-z, z'
  3  '-x-y-z, x, z'
  4  'x, -x-y-z, z'
  5  'y, x, z'
  6  '-x-y-z, y, z'
loop_
 _atom_site_type_symbol
 _atom_site_label
 _atom_site_symmetry_multiplicity
 _atom_site_fract_x
 _atom_site_fract_y
 _atom_site_fract_z
 _atom_site_occupancy
  Si  Si0  1  0.02298300  0.02298300  0.93105200  1.0
  Si  Si1  1  0.06894900  0.06894900  0.79315200  1.0
  Si  Si2  1  0.09194300  0.09194300  0.72417100  1.0
  Si  Si3  1  0.13791300  0.13791300  0.58626200  1.0
  Si  Si4  1  0.16091400  0.16091400  0.51725800  1.0
  Si  Si5  1  0.20688100  0.20688100  0.37935600  1.0
  Si  Si6  1  0.22988000  0.22988000  0.31035900  1.0
  Si  Si7  1  0.27584200  0.27584200  0.17247300  1.0
  Si  Si8  1  0.29884200  0.29884200  0.10347300  1.0
  Si  Si9  1  0.34481800  0.34481800  0.96554700  1.0
  Si  Si10  1  0.37930100  0.37930100  0.86209600  1.0
  Si  Si11  1  0.41378100  0.41378100  0.75865600  1.0
  Si  Si12  1  0.44826400  0.44826400  0.65520700  1.0
  Si  Si13  1  0.48274900  0.48274900  0.55175200  1.0
  Si  Si14  1  0.51723300  0.51723300  0.44830200  1.0
  Si  Si15  1  0.55171500  0.55171500  0.34485500  1.0
  Si  Si16  1  0.58619700  0.58619700  0.24140800  1.0
  Si  Si17  1  0.62067800  0.62067800  0.13796600  1.0
  Si  Si18  1  0.65516000  0.65516000  0.03452000  1.0
  Si  Si19  1  0.70113300  0.70113300  0.89660100  1.0
  Si  Si20  1  0.72413400  0.72413400  0.82759900  1.0
  Si  Si21  1  0.77009400  0.77009400  0.68971800  1.0
  Si  Si22  1  0.79309400  0.79309400  0.62071700  1.0
  Si  Si23  1  0.83906400  0.83906400  0.48280800  1.0
  Si  Si24  1  0.86206300  0.86206300  0.41381000  1.0
  Si  Si25  1  0.90803300  0.90803300  0.27590200  1.0
  Si  Si26  1  0.93102600  0.93102600  0.20692200  1.0
  Si  Si27  1  0.97699200  0.97699200  0.06902500  1.0
  Si  Si28  1  0.99998600  0.99998600  0.00004200  1.0
  C  C29  1  0.00861600  0.00861600  0.97415200  1.0
  C  C30  1  0.03161900  0.03161900  0.90514400  1.0
  C  C31  1  0.07758600  0.07758600  0.76724300  1.0
  C  C32  1  0.10058200  0.10058200  0.69825300  1.0
  C  C33  1  0.14654900  0.14654900  0.56035300  1.0
  C  C34  1  0.16954800  0.16954800  0.49135600  1.0
  C  C35  1  0.21551400  0.21551400  0.35345800  1.0
  C  C36  1  0.23851500  0.23851500  0.28445400  1.0
  C  C37  1  0.28448200  0.28448200  0.14655500  1.0
  C  C38  1  0.30748000  0.30748000  0.07755900  1.0
  C  C39  1  0.35347500  0.35347500  0.93957400  1.0
  C  C40  1  0.38795800  0.38795800  0.83612700  1.0
  C  C41  1  0.42244100  0.42244100  0.73267800  1.0
  C  C42  1  0.45692600  0.45692600  0.62922300  1.0
  C  C43  1  0.49140600  0.49140600  0.52578100  1.0
  C  C44  1  0.52588900  0.52588900  0.42233400  1.0
  C  C45  1  0.56037300  0.56037300  0.31888200  1.0
  C  C46  1  0.59486000  0.59486000  0.21542100  1.0
  C  C47  1  0.62933900  0.62933900  0.11198300  1.0
  C  C48  1  0.66381800  0.66381800  0.00854600  1.0
  C  C49  1  0.70976900  0.70976900  0.87069400  1.0
  C  C50  1  0.73276900  0.73276900  0.80169300  1.0
  C  C51  1  0.77873700  0.77873700  0.66379000  1.0
  C  C52  1  0.80173000  0.80173000  0.59480900  1.0
  C  C53  1  0.84769800  0.84769800  0.45690700  1.0
  C  C54  1  0.87069800  0.87069800  0.38790500  1.0
  C  C55  1  0.91666800  0.91666800  0.24999700  1.0
  C  C56  1  0.93966600  0.93966600  0.18100200  1.0
  C  C57  1  0.98562800  0.98562800  0.04311700  1.0
