# generated using pymatgen
data_SiC
_symmetry_space_group_name_H-M   P3m1
_cell_length_a   3.09491800
_cell_length_b   3.09491747
_cell_length_c   53.13655200
_cell_angle_alpha   90.00000000
_cell_angle_beta   90.00000000
_cell_angle_gamma   120.00000565
_symmetry_Int_Tables_number   156
_chemical_formula_structural   SiC
_chemical_formula_sum   'Si21 C21'
_cell_volume   440.78032033
_cell_formula_units_Z   21
loop_
 _symmetry_equiv_pos_site_id
 _symmetry_equiv_pos_as_xyz
  1  'x, y, z'
  2  '-y, x-y, z'
  3  '-x+y, -x, z'
  4  '-y, -x, z'
  5  '-x+y, y, z'
  6  'x, x-y, z'
loop_
 _atom_site_type_symbol
 _atom_site_label
 _atom_site_symmetry_multiplicity
 _atom_site_fract_x
 _atom_site_fract_y
 _atom_site_fract_z
 _atom_site_occupancy
  Si  Si0  1  0.00000000  0.00000000  0.09523000  1.0
  Si  Si1  1  0.00000000  0.00000000  0.19052700  1.0
  Si  Si2  1  0.00000000  0.00000000  0.33333333  1.0
  Si  Si3  1  0.00000000  0.00000000  0.52379800  1.0
  Si  Si4  1  0.00000000  0.00000000  0.61909900  1.0
  Si  Si5  1  0.00000000  0.00000000  0.80951100  1.0
  Si  Si6  1  0.00000000  0.00000000  0.90479100  1.0
  Si  Si7  1  0.33333333  0.66666667  0.04765800  1.0
  Si  Si8  1  0.33333333  0.66666667  0.23811800  1.0
  Si  Si9  1  0.33333333  0.66666667  0.38093300  1.0
  Si  Si10  1  0.33333333  0.66666667  0.47623300  1.0
  Si  Si11  1  0.33333333  0.66666667  0.66666667  1.0
  Si  Si12  1  0.33333333  0.66666667  0.76194700  1.0
  Si  Si13  1  0.33333333  0.66666667  0.95236100  1.0
  Si  Si14  1  0.66666667  0.33333333  0.00000500  1.0
  Si  Si15  1  0.66666667  0.33333333  0.14287300  1.0
  Si  Si16  1  0.66666667  0.33333333  0.28573100  1.0
  Si  Si17  1  0.66666667  0.33333333  0.42858200  1.0
  Si  Si18  1  0.66666667  0.33333333  0.57144100  1.0
  Si  Si19  1  0.66666667  0.33333333  0.71430200  1.0
  Si  Si20  1  0.66666667  0.33333333  0.85714500  1.0
  C  C21  1  0.00000000  0.00000000  0.05952100  1.0
  C  C22  1  0.00000000  0.00000000  0.15481600  1.0
  C  C23  1  0.00000000  0.00000000  0.29760800  1.0
  C  C24  1  0.00000000  0.00000000  0.48809700  1.0
  C  C25  1  0.00000000  0.00000000  0.58340100  1.0
  C  C26  1  0.00000000  0.00000000  0.77380600  1.0
  C  C27  1  0.00000000  0.00000000  0.86907800  1.0
  C  C28  1  0.33333333  0.66666667  0.01195300  1.0
  C  C29  1  0.33333333  0.66666667  0.20238400  1.0
  C  C30  1  0.33333333  0.66666667  0.34521300  1.0
  C  C31  1  0.33333333  0.66666667  0.44052700  1.0
  C  C32  1  0.33333333  0.66666667  0.63097000  1.0
  C  C33  1  0.33333333  0.66666667  0.72624100  1.0
  C  C34  1  0.33333333  0.66666667  0.91663700  1.0
  C  C35  1  0.66666667  0.33333333  0.10706000  1.0
  C  C36  1  0.66666667  0.33333333  0.24998900  1.0
  C  C37  1  0.66666667  0.33333333  0.39276300  1.0
  C  C38  1  0.66666667  0.33333333  0.53563600  1.0
  C  C39  1  0.66666667  0.33333333  0.67849600  1.0
  C  C40  1  0.66666667  0.33333333  0.82133000  1.0
  C  C41  1  0.66666667  0.33333333  0.96417900  1.0
