# generated using pymatgen
data_SiC
_symmetry_space_group_name_H-M   P3m1
_cell_length_a   3.09404200
_cell_length_b   3.09404116
_cell_length_c   45.55453500
_cell_angle_alpha   90.00000000
_cell_angle_beta   90.00000000
_cell_angle_gamma   120.00000901
_symmetry_Int_Tables_number   156
_chemical_formula_structural   SiC
_chemical_formula_sum   'Si18 C18'
_cell_volume   377.67175094
_cell_formula_units_Z   18
loop_
 _symmetry_equiv_pos_site_id
 _symmetry_equiv_pos_as_xyz
  1  'x, y, z'
  2  '-y, x-y, z'
  3  '-x+y, -x, z'
  4  '-y, -x, z'
  5  '-x+y, y, z'
  6  'x, x-y, z'
loop_
 _atom_site_type_symbol
 _atom_site_label
 _atom_site_symmetry_multiplicity
 _atom_site_fract_x
 _atom_site_fract_y
 _atom_site_fract_z
 _atom_site_occupancy
  Si  Si0  1  0.00000000  0.00000000  0.00001800  1.0
  Si  Si1  1  0.00000000  0.00000000  0.16668400  1.0
  Si  Si2  1  0.00000000  0.00000000  0.33333333  1.0
  Si  Si3  1  0.00000000  0.00000000  0.55557300  1.0
  Si  Si4  1  0.00000000  0.00000000  0.77779800  1.0
  Si  Si5  1  0.33333333  0.66666667  0.11110000  1.0
  Si  Si6  1  0.33333333  0.66666667  0.22227300  1.0
  Si  Si7  1  0.33333333  0.66666667  0.44445900  1.0
  Si  Si8  1  0.33333333  0.66666667  0.66666667  1.0
  Si  Si9  1  0.33333333  0.66666667  0.88890600  1.0
  Si  Si10  1  0.66666667  0.33333333  0.05561100  1.0
  Si  Si11  1  0.66666667  0.33333333  0.27777100  1.0
  Si  Si12  1  0.66666667  0.33333333  0.38891300  1.0
  Si  Si13  1  0.66666667  0.33333333  0.50002900  1.0
  Si  Si14  1  0.66666667  0.33333333  0.61113400  1.0
  Si  Si15  1  0.66666667  0.33333333  0.72224300  1.0
  Si  Si16  1  0.66666667  0.33333333  0.83335800  1.0
  Si  Si17  1  0.66666667  0.33333333  0.94446900  1.0
  C  C18  1  0.00000000  0.00000000  0.12490300  1.0
  C  C19  1  0.00000000  0.00000000  0.29156400  1.0
  C  C20  1  0.00000000  0.00000000  0.51379900  1.0
  C  C21  1  0.00000000  0.00000000  0.73601600  1.0
  C  C22  1  0.00000000  0.00000000  0.95823600  1.0
  C  C23  1  0.33333333  0.66666667  0.06943300  1.0
  C  C24  1  0.33333333  0.66666667  0.18059200  1.0
  C  C25  1  0.33333333  0.66666667  0.40268500  1.0
  C  C26  1  0.33333333  0.66666667  0.62490400  1.0
  C  C27  1  0.33333333  0.66666667  0.84712500  1.0
  C  C28  1  0.66666667  0.33333333  0.01394400  1.0
  C  C29  1  0.66666667  0.33333333  0.23611000  1.0
  C  C30  1  0.66666667  0.33333333  0.34726400  1.0
  C  C31  1  0.66666667  0.33333333  0.45840000  1.0
  C  C32  1  0.66666667  0.33333333  0.56949600  1.0
  C  C33  1  0.66666667  0.33333333  0.68060500  1.0
  C  C34  1  0.66666667  0.33333333  0.79171900  1.0
  C  C35  1  0.66666667  0.33333333  0.90283100  1.0
