# generated using pymatgen
data_SiC
_symmetry_space_group_name_H-M   P3m1
_cell_length_a   3.09440000
_cell_length_b   3.09439999
_cell_length_c   48.09961700
_cell_angle_alpha   90.00000000
_cell_angle_beta   90.00000000
_cell_angle_gamma   120.00000009
_symmetry_Int_Tables_number   156
_chemical_formula_structural   SiC
_chemical_formula_sum   'Si19 C19'
_cell_volume   398.86428720
_cell_formula_units_Z   19
loop_
 _symmetry_equiv_pos_site_id
 _symmetry_equiv_pos_as_xyz
  1  'x, y, z'
  2  '-y, x-y, z'
  3  '-x+y, -x, z'
  4  '-y, -x, z'
  5  '-x+y, y, z'
  6  'x, x-y, z'
loop_
 _atom_site_type_symbol
 _atom_site_label
 _atom_site_symmetry_multiplicity
 _atom_site_fract_x
 _atom_site_fract_y
 _atom_site_fract_z
 _atom_site_occupancy
  Si  Si0  1  0.00000000  0.00000000  0.05264900  1.0
  Si  Si1  1  0.00000000  0.00000000  0.26315500  1.0
  Si  Si2  1  0.00000000  0.00000000  0.36845500  1.0
  Si  Si3  1  0.00000000  0.00000000  0.47373500  1.0
  Si  Si4  1  0.00000000  0.00000000  0.68423000  1.0
  Si  Si5  1  0.00000000  0.00000000  0.84210900  1.0
  Si  Si6  1  0.33333333  0.66666667  0.15791000  1.0
  Si  Si7  1  0.33333333  0.66666667  0.31581300  1.0
  Si  Si8  1  0.33333333  0.66666667  0.52631600  1.0
  Si  Si9  1  0.33333333  0.66666667  0.63161300  1.0
  Si  Si10  1  0.33333333  0.66666667  0.73689300  1.0
  Si  Si11  1  0.33333333  0.66666667  0.94737800  1.0
  Si  Si12  1  0.66666667  0.33333333  0.00002200  1.0
  Si  Si13  1  0.66666667  0.33333333  0.10529100  1.0
  Si  Si14  1  0.66666667  0.33333333  0.21057200  1.0
  Si  Si15  1  0.66666667  0.33333333  0.42107100  1.0
  Si  Si16  1  0.66666667  0.33333333  0.57896600  1.0
  Si  Si17  1  0.66666667  0.33333333  0.78946400  1.0
  Si  Si18  1  0.66666667  0.33333333  0.89475500  1.0
  C  C19  1  0.00000000  0.00000000  0.01305900  1.0
  C  C20  1  0.00000000  0.00000000  0.22366500  1.0
  C  C21  1  0.00000000  0.00000000  0.32900000  1.0
  C  C22  1  0.00000000  0.00000000  0.43425600  1.0
  C  C23  1  0.00000000  0.00000000  0.64464700  1.0
  C  C24  1  0.00000000  0.00000000  0.80251900  1.0
  C  C25  1  0.33333333  0.66666667  0.11832300  1.0
  C  C26  1  0.33333333  0.66666667  0.27622000  1.0
  C  C27  1  0.33333333  0.66666667  0.48683300  1.0
  C  C28  1  0.33333333  0.66666667  0.59215500  1.0
  C  C29  1  0.33333333  0.66666667  0.69741300  1.0
  C  C30  1  0.33333333  0.66666667  0.90778600  1.0
  C  C31  1  0.66666667  0.33333333  0.06583200  1.0
  C  C32  1  0.66666667  0.33333333  0.17109100  1.0
  C  C33  1  0.66666667  0.33333333  0.38149100  1.0
  C  C34  1  0.66666667  0.33333333  0.53937500  1.0
  C  C35  1  0.66666667  0.33333333  0.74998600  1.0
  C  C36  1  0.66666667  0.33333333  0.85528800  1.0
  C  C37  1  0.66666667  0.33333333  0.96056600  1.0
