# generated using pymatgen
data_SiC
_symmetry_space_group_name_H-M   R3m
_cell_length_a   3.09453978
_cell_length_b   3.09453978
_cell_length_c   43.05435410
_cell_angle_alpha   87.94048340
_cell_angle_beta   87.94048340
_cell_angle_gamma   60.00000468
_symmetry_Int_Tables_number   160
_chemical_formula_structural   SiC
_chemical_formula_sum   'Si17 C17'
_cell_volume   356.75134329
_cell_formula_units_Z   17
loop_
 _symmetry_equiv_pos_site_id
 _symmetry_equiv_pos_as_xyz
  1  'x, y, z'
  2  'y, -x-y-z, z'
  3  '-x-y-z, x, z'
  4  'y, x, z'
  5  '-x-y-z, y, z'
  6  'x, -x-y-z, z'
loop_
 _atom_site_type_symbol
 _atom_site_label
 _atom_site_symmetry_multiplicity
 _atom_site_fract_x
 _atom_site_fract_y
 _atom_site_fract_z
 _atom_site_occupancy
  Si  Si0  1  0.03920200  0.03920200  0.88239300  1.0
  Si  Si1  1  0.11761300  0.11761300  0.64716200  1.0
  Si  Si2  1  0.15687000  0.15687000  0.52939100  1.0
  Si  Si3  1  0.23528100  0.23528100  0.29415700  1.0
  Si  Si4  1  0.27450100  0.27450100  0.17649700  1.0
  Si  Si5  1  0.35291500  0.35291500  0.94125600  1.0
  Si  Si6  1  0.41177200  0.41177200  0.76468400  1.0
  Si  Si7  1  0.47058000  0.47058000  0.58826000  1.0
  Si  Si8  1  0.52940200  0.52940200  0.41179400  1.0
  Si  Si9  1  0.58821400  0.58821400  0.23535700  1.0
  Si  Si10  1  0.64707200  0.64707200  0.05878400  1.0
  Si  Si11  1  0.72547700  0.72547700  0.82356800  1.0
  Si  Si12  1  0.76470200  0.76470200  0.70589300  1.0
  Si  Si13  1  0.84310900  0.84310900  0.47067200  1.0
  Si  Si14  1  0.88236900  0.88236900  0.35289300  1.0
  Si  Si15  1  0.96077600  0.96077600  0.11767100  1.0
  Si  Si16  1  0.99999100  0.99999100  0.00002800  1.0
  C  C17  1  0.01468100  0.01468100  0.95595600  1.0
  C  C18  1  0.05390800  0.05390800  0.83827600  1.0
  C  C19  1  0.13231500  0.13231500  0.60305600  1.0
  C  C20  1  0.17157600  0.17157600  0.48527300  1.0
  C  C21  1  0.24998600  0.24998600  0.25004300  1.0
  C  C22  1  0.28920800  0.28920800  0.13237700  1.0
  C  C23  1  0.36766000  0.36766000  0.89702100  1.0
  C  C24  1  0.42651400  0.42651400  0.72045900  1.0
  C  C25  1  0.48532400  0.48532400  0.54402900  1.0
  C  C26  1  0.54415000  0.54415000  0.36755100  1.0
  C  C27  1  0.60295700  0.60295700  0.19112900  1.0
  C  C28  1  0.66181200  0.66181200  0.01456500  1.0
  C  C29  1  0.74018200  0.74018200  0.77945300  1.0
  C  C30  1  0.77940600  0.77940600  0.66178100  1.0
  C  C31  1  0.85781700  0.85781700  0.42655000  1.0
  C  C32  1  0.89707400  0.89707400  0.30877800  1.0
  C  C33  1  0.97548600  0.97548600  0.07354200  1.0
