# generated using pymatgen
data_SiC
_symmetry_space_group_name_H-M   P3m1
_cell_length_a   3.09416400
_cell_length_b   3.09416346
_cell_length_c   98.70974100
_cell_angle_alpha   90.00000000
_cell_angle_beta   90.00000000
_cell_angle_gamma   120.00000581
_symmetry_Int_Tables_number   156
_chemical_formula_structural   SiC
_chemical_formula_sum   'Si39 C39'
_cell_volume   818.42182192
_cell_formula_units_Z   39
loop_
 _symmetry_equiv_pos_site_id
 _symmetry_equiv_pos_as_xyz
  1  'x, y, z'
  2  '-y, x-y, z'
  3  '-x+y, -x, z'
  4  '-y, -x, z'
  5  '-x+y, y, z'
  6  'x, x-y, z'
loop_
 _atom_site_type_symbol
 _atom_site_label
 _atom_site_symmetry_multiplicity
 _atom_site_fract_x
 _atom_site_fract_y
 _atom_site_fract_z
 _atom_site_occupancy
  Si  Si0  1  0.00000000  0.00000000  0.00000900  1.0
  Si  Si1  1  0.00000000  0.00000000  0.10255700  1.0
  Si  Si2  1  0.00000000  0.00000000  0.15386400  1.0
  Si  Si3  1  0.00000000  0.00000000  0.20515600  1.0
  Si  Si4  1  0.00000000  0.00000000  0.30768700  1.0
  Si  Si5  1  0.00000000  0.00000000  0.35899400  1.0
  Si  Si6  1  0.00000000  0.00000000  0.46153500  1.0
  Si  Si7  1  0.00000000  0.00000000  0.51284500  1.0
  Si  Si8  1  0.00000000  0.00000000  0.61538800  1.0
  Si  Si9  1  0.00000000  0.00000000  0.69232000  1.0
  Si  Si10  1  0.00000000  0.00000000  0.76923700  1.0
  Si  Si11  1  0.00000000  0.00000000  0.84615900  1.0
  Si  Si12  1  0.00000000  0.00000000  0.92309000  1.0
  Si  Si13  1  0.33333333  0.66666667  0.05128800  1.0
  Si  Si14  1  0.33333333  0.66666667  0.17949700  1.0
  Si  Si15  1  0.33333333  0.66666667  0.25641900  1.0
  Si  Si16  1  0.33333333  0.66666667  0.33333333  1.0
  Si  Si17  1  0.33333333  0.66666667  0.41026800  1.0
  Si  Si18  1  0.33333333  0.66666667  0.53845900  1.0
  Si  Si19  1  0.33333333  0.66666667  0.58975300  1.0
  Si  Si20  1  0.33333333  0.66666667  0.64105200  1.0
  Si  Si21  1  0.33333333  0.66666667  0.74359200  1.0
  Si  Si22  1  0.33333333  0.66666667  0.79489400  1.0
  Si  Si23  1  0.33333333  0.66666667  0.89744000  1.0
  Si  Si24  1  0.33333333  0.66666667  0.94874100  1.0
  Si  Si25  1  0.66666667  0.33333333  0.02564900  1.0
  Si  Si26  1  0.66666667  0.33333333  0.07693100  1.0
  Si  Si27  1  0.66666667  0.33333333  0.12823100  1.0
  Si  Si28  1  0.66666667  0.33333333  0.23077300  1.0
  Si  Si29  1  0.66666667  0.33333333  0.28207000  1.0
  Si  Si30  1  0.66666667  0.33333333  0.38461300  1.0
  Si  Si31  1  0.66666667  0.33333333  0.43590900  1.0
  Si  Si32  1  0.66666667  0.33333333  0.48720400  1.0
  Si  Si33  1  0.66666667  0.33333333  0.56411500  1.0
  Si  Si34  1  0.66666667  0.33333333  0.66666667  1.0
  Si  Si35  1  0.66666667  0.33333333  0.71798200  1.0
  Si  Si36  1  0.66666667  0.33333333  0.82050700  1.0
  Si  Si37  1  0.66666667  0.33333333  0.87181700  1.0
  Si  Si38  1  0.66666667  0.33333333  0.97435700  1.0
  C  C39  1  0.00000000  0.00000000  0.08328700  1.0
  C  C40  1  0.00000000  0.00000000  0.13464900  1.0
  C  C41  1  0.00000000  0.00000000  0.18592100  1.0
  C  C42  1  0.00000000  0.00000000  0.28846000  1.0
  C  C43  1  0.00000000  0.00000000  0.33976400  1.0
  C  C44  1  0.00000000  0.00000000  0.44226700  1.0
  C  C45  1  0.00000000  0.00000000  0.49361100  1.0
  C  C46  1  0.00000000  0.00000000  0.59610300  1.0
  C  C47  1  0.00000000  0.00000000  0.67303900  1.0
  C  C48  1  0.00000000  0.00000000  0.74995300  1.0
  C  C49  1  0.00000000  0.00000000  0.82687200  1.0
  C  C50  1  0.00000000  0.00000000  0.90380500  1.0
  C  C51  1  0.00000000  0.00000000  0.98072600  1.0
  C  C52  1  0.33333333  0.66666667  0.03200500  1.0
  C  C53  1  0.33333333  0.66666667  0.16021400  1.0
  C  C54  1  0.33333333  0.66666667  0.23713500  1.0
  C  C55  1  0.33333333  0.66666667  0.31405600  1.0
  C  C56  1  0.33333333  0.66666667  0.39097700  1.0
  C  C57  1  0.33333333  0.66666667  0.51922400  1.0
  C  C58  1  0.33333333  0.66666667  0.57053900  1.0
  C  C59  1  0.33333333  0.66666667  0.62181500  1.0
  C  C60  1  0.33333333  0.66666667  0.72435700  1.0
  C  C61  1  0.33333333  0.66666667  0.77566100  1.0
  C  C62  1  0.33333333  0.66666667  0.87819800  1.0
  C  C63  1  0.33333333  0.66666667  0.92950700  1.0
  C  C64  1  0.66666667  0.33333333  0.00643900  1.0
  C  C65  1  0.66666667  0.33333333  0.05771600  1.0
  C  C66  1  0.66666667  0.33333333  0.10895700  1.0
  C  C67  1  0.66666667  0.33333333  0.21152800  1.0
  C  C68  1  0.66666667  0.33333333  0.26283700  1.0
  C  C69  1  0.66666667  0.33333333  0.36537800  1.0
  C  C70  1  0.66666667  0.33333333  0.41669600  1.0
  C  C71  1  0.66666667  0.33333333  0.46793700  1.0
  C  C72  1  0.66666667  0.33333333  0.54481800  1.0
  C  C73  1  0.66666667  0.33333333  0.64743300  1.0
  C  C74  1  0.66666667  0.33333333  0.69874100  1.0
  C  C75  1  0.66666667  0.33333333  0.80127600  1.0
  C  C76  1  0.66666667  0.33333333  0.85258300  1.0
  C  C77  1  0.66666667  0.33333333  0.95513100  1.0
