# generated using pymatgen
data_SiC
_symmetry_space_group_name_H-M   P3m1
_cell_length_a   3.09481000
_cell_length_b   3.09480906
_cell_length_c   91.10035700
_cell_angle_alpha   90.00000000
_cell_angle_beta   90.00000000
_cell_angle_gamma   120.00000999
_symmetry_Int_Tables_number   156
_chemical_formula_structural   SiC
_chemical_formula_sum   'Si36 C36'
_cell_volume   755.64622646
_cell_formula_units_Z   36
loop_
 _symmetry_equiv_pos_site_id
 _symmetry_equiv_pos_as_xyz
  1  'x, y, z'
  2  '-y, x-y, z'
  3  '-x+y, -x, z'
  4  '-y, -x, z'
  5  '-x+y, y, z'
  6  'x, x-y, z'
loop_
 _atom_site_type_symbol
 _atom_site_label
 _atom_site_symmetry_multiplicity
 _atom_site_fract_x
 _atom_site_fract_y
 _atom_site_fract_z
 _atom_site_occupancy
  Si  Si0  1  0.00000000  0.00000000  0.00001000  1.0
  Si  Si1  1  0.00000000  0.00000000  0.11110900  1.0
  Si  Si2  1  0.00000000  0.00000000  0.16668900  1.0
  Si  Si3  1  0.00000000  0.00000000  0.27777500  1.0
  Si  Si4  1  0.00000000  0.00000000  0.33333333  1.0
  Si  Si5  1  0.00000000  0.00000000  0.44443800  1.0
  Si  Si6  1  0.00000000  0.00000000  0.50002500  1.0
  Si  Si7  1  0.00000000  0.00000000  0.58334500  1.0
  Si  Si8  1  0.00000000  0.00000000  0.66666667  1.0
  Si  Si9  1  0.00000000  0.00000000  0.75000700  1.0
  Si  Si10  1  0.00000000  0.00000000  0.83334200  1.0
  Si  Si11  1  0.00000000  0.00000000  0.91667500  1.0
  Si  Si12  1  0.33333333  0.66666667  0.05556700  1.0
  Si  Si13  1  0.33333333  0.66666667  0.13889600  1.0
  Si  Si14  1  0.33333333  0.66666667  0.22222700  1.0
  Si  Si15  1  0.33333333  0.66666667  0.30556700  1.0
  Si  Si16  1  0.33333333  0.66666667  0.38890000  1.0
  Si  Si17  1  0.33333333  0.66666667  0.47222800  1.0
  Si  Si18  1  0.33333333  0.66666667  0.55555600  1.0
  Si  Si19  1  0.33333333  0.66666667  0.61113800  1.0
  Si  Si20  1  0.33333333  0.66666667  0.72221500  1.0
  Si  Si21  1  0.33333333  0.66666667  0.77780400  1.0
  Si  Si22  1  0.33333333  0.66666667  0.88888700  1.0
  Si  Si23  1  0.33333333  0.66666667  0.94446800  1.0
  Si  Si24  1  0.66666667  0.33333333  0.02779300  1.0
  Si  Si25  1  0.66666667  0.33333333  0.08336200  1.0
  Si  Si26  1  0.66666667  0.33333333  0.19443500  1.0
  Si  Si27  1  0.66666667  0.33333333  0.25002300  1.0
  Si  Si28  1  0.66666667  0.33333333  0.36110800  1.0
  Si  Si29  1  0.66666667  0.33333333  0.41669200  1.0
  Si  Si30  1  0.66666667  0.33333333  0.52779000  1.0
  Si  Si31  1  0.66666667  0.33333333  0.63888400  1.0
  Si  Si32  1  0.66666667  0.33333333  0.69446300  1.0
  Si  Si33  1  0.66666667  0.33333333  0.80555500  1.0
  Si  Si34  1  0.66666667  0.33333333  0.86113600  1.0
  Si  Si35  1  0.66666667  0.33333333  0.97221500  1.0
  C  C36  1  0.00000000  0.00000000  0.09027200  1.0
  C  C37  1  0.00000000  0.00000000  0.14585800  1.0
  C  C38  1  0.00000000  0.00000000  0.25694000  1.0
  C  C39  1  0.00000000  0.00000000  0.31253200  1.0
  C  C40  1  0.00000000  0.00000000  0.42360900  1.0
  C  C41  1  0.00000000  0.00000000  0.47919100  1.0
  C  C42  1  0.00000000  0.00000000  0.56245000  1.0
  C  C43  1  0.00000000  0.00000000  0.64578600  1.0
  C  C44  1  0.00000000  0.00000000  0.72911700  1.0
  C  C45  1  0.00000000  0.00000000  0.81245400  1.0
  C  C46  1  0.00000000  0.00000000  0.89578200  1.0
  C  C47  1  0.00000000  0.00000000  0.97911100  1.0
  C  C48  1  0.33333333  0.66666667  0.03467100  1.0
  C  C49  1  0.33333333  0.66666667  0.11800400  1.0
  C  C50  1  0.33333333  0.66666667  0.20133800  1.0
  C  C51  1  0.33333333  0.66666667  0.28467200  1.0
  C  C52  1  0.33333333  0.66666667  0.36801300  1.0
  C  C53  1  0.33333333  0.66666667  0.45133200  1.0
  C  C54  1  0.33333333  0.66666667  0.53471800  1.0
  C  C55  1  0.33333333  0.66666667  0.59030200  1.0
  C  C56  1  0.33333333  0.66666667  0.70138800  1.0
  C  C57  1  0.33333333  0.66666667  0.75697000  1.0
  C  C58  1  0.33333333  0.66666667  0.86805100  1.0
  C  C59  1  0.33333333  0.66666667  0.92363000  1.0
  C  C60  1  0.66666667  0.33333333  0.00697700  1.0
  C  C61  1  0.66666667  0.33333333  0.06252600  1.0
  C  C62  1  0.66666667  0.33333333  0.17360500  1.0
  C  C63  1  0.66666667  0.33333333  0.22919100  1.0
  C  C64  1  0.66666667  0.33333333  0.34027900  1.0
  C  C65  1  0.66666667  0.33333333  0.39585600  1.0
  C  C66  1  0.66666667  0.33333333  0.50693600  1.0
  C  C67  1  0.66666667  0.33333333  0.61805000  1.0
  C  C68  1  0.66666667  0.33333333  0.67363400  1.0
  C  C69  1  0.66666667  0.33333333  0.78472100  1.0
  C  C70  1  0.66666667  0.33333333  0.84030700  1.0
  C  C71  1  0.66666667  0.33333333  0.95138100  1.0
