# generated using pymatgen
data_SiC
_symmetry_space_group_name_H-M   P3m1
_cell_length_a   3.09495800
_cell_length_b   3.09495865
_cell_length_c   35.42029000
_cell_angle_alpha   90.00000000
_cell_angle_beta   90.00000000
_cell_angle_gamma   119.99999308
_symmetry_Int_Tables_number   156
_chemical_formula_structural   SiC
_chemical_formula_sum   'Si14 C14'
_cell_volume   293.82746310
_cell_formula_units_Z   14
loop_
 _symmetry_equiv_pos_site_id
 _symmetry_equiv_pos_as_xyz
  1  'x, y, z'
  2  '-y, x-y, z'
  3  '-x+y, -x, z'
  4  '-y, -x, z'
  5  '-x+y, y, z'
  6  'x, x-y, z'
loop_
 _atom_site_type_symbol
 _atom_site_label
 _atom_site_symmetry_multiplicity
 _atom_site_fract_x
 _atom_site_fract_y
 _atom_site_fract_z
 _atom_site_occupancy
  Si  Si0  1  0.00000000  0.00000000  0.14287500  1.0
  Si  Si1  1  0.00000000  0.00000000  0.42854800  1.0
  Si  Si2  1  0.00000000  0.00000000  0.57149300  1.0
  Si  Si3  1  0.00000000  0.00000000  0.85716600  1.0
  Si  Si4  1  0.33333333  0.66666667  0.07149000  1.0
  Si  Si5  1  0.33333333  0.66666667  0.28573600  1.0
  Si  Si6  1  0.33333333  0.66666667  0.50001700  1.0
  Si  Si7  1  0.33333333  0.66666667  0.71430100  1.0
  Si  Si8  1  0.33333333  0.66666667  0.92855000  1.0
  Si  Si9  1  0.66666667  0.33333333  0.00001800  1.0
  Si  Si10  1  0.66666667  0.33333333  0.21426700  1.0
  Si  Si11  1  0.66666667  0.33333333  0.35720900  1.0
  Si  Si12  1  0.66666667  0.33333333  0.64283800  1.0
  Si  Si13  1  0.66666667  0.33333333  0.78578000  1.0
  C  C14  1  0.00000000  0.00000000  0.08926600  1.0
  C  C15  1  0.00000000  0.00000000  0.37498500  1.0
  C  C16  1  0.00000000  0.00000000  0.51793700  1.0
  C  C17  1  0.00000000  0.00000000  0.80355200  1.0
  C  C18  1  0.33333333  0.66666667  0.01793600  1.0
  C  C19  1  0.33333333  0.66666667  0.23201100  1.0
  C  C20  1  0.33333333  0.66666667  0.44631400  1.0
  C  C21  1  0.33333333  0.66666667  0.66060000  1.0
  C  C22  1  0.33333333  0.66666667  0.87498600  1.0
  C  C23  1  0.66666667  0.33333333  0.16070500  1.0
  C  C24  1  0.66666667  0.33333333  0.30362700  1.0
  C  C25  1  0.66666667  0.33333333  0.58928200  1.0
  C  C26  1  0.66666667  0.33333333  0.73220100  1.0
  C  C27  1  0.66666667  0.33333333  0.94631400  1.0
