# generated using pymatgen
data_SiC
_symmetry_space_group_name_H-M   R3m
_cell_length_a   3.09791800
_cell_length_b   3.09791827
_cell_length_c   70.75363045
_cell_angle_alpha   88.74556392
_cell_angle_beta   88.74556396
_cell_angle_gamma   60.00000290
_symmetry_Int_Tables_number   160
_chemical_formula_structural   SiC
_chemical_formula_sum   'Si28 C28'
_cell_volume   587.86883776
_cell_formula_units_Z   28
loop_
 _symmetry_equiv_pos_site_id
 _symmetry_equiv_pos_as_xyz
  1  'x, y, z'
  2  '-x-y-z, x, z'
  3  'y, -x-y-z, z'
  4  'x, -x-y-z, z'
  5  '-x-y-z, y, z'
  6  'y, x, z'
loop_
 _atom_site_type_symbol
 _atom_site_label
 _atom_site_symmetry_multiplicity
 _atom_site_fract_x
 _atom_site_fract_y
 _atom_site_fract_z
 _atom_site_occupancy
  Si  Si0  1  0.00011900  0.00011900  0.99964300  1.0
  Si  Si1  1  0.04757400  0.04757400  0.85727900  1.0
  Si  Si2  1  0.07133500  0.07133500  0.78599400  1.0
  Si  Si3  1  0.09516400  0.09516400  0.71450800  1.0
  Si  Si4  1  0.14277800  0.14277800  0.57166500  1.0
  Si  Si5  1  0.16667100  0.16667100  0.49998700  1.0
  Si  Si6  1  0.21423600  0.21423600  0.35729200  1.0
  Si  Si7  1  0.23804100  0.23804100  0.28587600  1.0
  Si  Si8  1  0.28578000  0.28578000  0.14266000  1.0
  Si  Si9  1  0.30967500  0.30967500  0.07097400  1.0
  Si  Si10  1  0.35715000  0.35715000  0.92854900  1.0
  Si  Si11  1  0.39278600  0.39278600  0.82164200  1.0
  Si  Si12  1  0.44042200  0.44042200  0.67873500  1.0
  Si  Si13  1  0.46422500  0.46422500  0.60732400  1.0
  Si  Si14  1  0.51192000  0.51192000  0.46424000  1.0
  Si  Si15  1  0.53570600  0.53570600  0.39288200  1.0
  Si  Si16  1  0.58330200  0.58330200  0.25009300  1.0
  Si  Si17  1  0.60719500  0.60719500  0.17841500  1.0
  Si  Si18  1  0.65491800  0.65491800  0.03524500  1.0
  Si  Si19  1  0.67862200  0.67862200  0.96413400  1.0
  Si  Si20  1  0.70237700  0.70237700  0.89287000  1.0
  Si  Si21  1  0.74989100  0.74989100  0.75032700  1.0
  Si  Si22  1  0.78565900  0.78565900  0.64302300  1.0
  Si  Si23  1  0.82138700  0.82138700  0.53583800  1.0
  Si  Si24  1  0.85715600  0.85715600  0.42853200  1.0
  Si  Si25  1  0.89278600  0.89278600  0.32164300  1.0
  Si  Si26  1  0.92857700  0.92857700  0.21426800  1.0
  Si  Si27  1  0.96439200  0.96439200  0.10682300  1.0
  C  C28  1  0.03863200  0.03863200  0.88410300  1.0
  C  C29  1  0.06242000  0.06242000  0.81274000  1.0
  C  C30  1  0.08621300  0.08621300  0.74136000  1.0
  C  C31  1  0.13383600  0.13383600  0.59849200  1.0
  C  C32  1  0.15771000  0.15771000  0.52687000  1.0
  C  C33  1  0.20530300  0.20530300  0.38409200  1.0
  C  C34  1  0.22908800  0.22908800  0.31273600  1.0
  C  C35  1  0.27681900  0.27681900  0.16954200  1.0
  C  C36  1  0.30070300  0.30070300  0.09789000  1.0
  C  C37  1  0.34819000  0.34819000  0.95543000  1.0
  C  C38  1  0.38383500  0.38383500  0.84849400  1.0
  C  C39  1  0.43147200  0.43147200  0.70558300  1.0
  C  C40  1  0.45529400  0.45529400  0.63411800  1.0
  C  C41  1  0.50297100  0.50297100  0.49108700  1.0
  C  C42  1  0.52677400  0.52677400  0.41967900  1.0
  C  C43  1  0.57433900  0.57433900  0.27698200  1.0
  C  C44  1  0.59823400  0.59823400  0.20529700  1.0
  C  C45  1  0.64596100  0.64596100  0.06211600  1.0
  C  C46  1  0.66970700  0.66970700  0.99087800  1.0
  C  C47  1  0.69343200  0.69343200  0.91970300  1.0
  C  C48  1  0.74093200  0.74093200  0.77720500  1.0
  C  C49  1  0.77670700  0.77670700  0.66988000  1.0
  C  C50  1  0.81240700  0.81240700  0.56277900  1.0
  C  C51  1  0.84819300  0.84819300  0.45542200  1.0
  C  C52  1  0.88381800  0.88381800  0.34854500  1.0
  C  C53  1  0.91959300  0.91959300  0.24122200  1.0
  C  C54  1  0.95539900  0.95539900  0.13380400  1.0
  C  C55  1  0.99117000  0.99117000  0.02648900  1.0
