# generated using pymatgen
data_SiC
_symmetry_space_group_name_H-M   R3m
_cell_length_a   3.09476473
_cell_length_b   3.09476473
_cell_length_c   12.78008945
_cell_angle_alpha   83.04570325
_cell_angle_beta   83.04570325
_cell_angle_gamma   59.99998443
_symmetry_Int_Tables_number   160
_chemical_formula_structural   SiC
_chemical_formula_sum   'Si5 C5'
_cell_volume   104.96228192
_cell_formula_units_Z   5
loop_
 _symmetry_equiv_pos_site_id
 _symmetry_equiv_pos_as_xyz
  1  'x, y, z'
  2  '-x-y-z, x, z'
  3  'y, -x-y-z, z'
  4  'x, -x-y-z, z'
  5  '-x-y-z, y, z'
  6  'y, x, z'
loop_
 _atom_site_type_symbol
 _atom_site_label
 _atom_site_symmetry_multiplicity
 _atom_site_fract_x
 _atom_site_fract_y
 _atom_site_fract_z
 _atom_site_occupancy
  Si  Si0  1  0.05004200  0.05004200  0.84987400  1.0
  Si  Si1  1  0.18340500  0.18340500  0.44978500  1.0
  Si  Si2  1  0.45004500  0.45004500  0.64986500  1.0
  Si  Si3  1  0.65000900  0.65000900  0.04997300  1.0
  Si  Si4  1  0.91665800  0.91665800  0.25002600  1.0
  C  C5  1  0.00004800  0.00004800  0.99985600  1.0
  C  C6  1  0.13340100  0.13340100  0.59979700  1.0
  C  C7  1  0.39989600  0.39989600  0.80031200  1.0
  C  C8  1  0.59985200  0.59985200  0.20044400  1.0
  C  C9  1  0.86664500  0.86664500  0.40006500  1.0
