# generated using pymatgen
data_SiC
_symmetry_space_group_name_H-M   P3m1
_cell_length_a   3.09471000
_cell_length_b   3.09470959
_cell_length_c   68.33205400
_cell_angle_alpha   90.00000000
_cell_angle_beta   90.00000000
_cell_angle_gamma   120.00000442
_symmetry_Int_Tables_number   156
_chemical_formula_structural   SiC
_chemical_formula_sum   'Si27 C27'
_cell_volume   566.75446044
_cell_formula_units_Z   27
loop_
 _symmetry_equiv_pos_site_id
 _symmetry_equiv_pos_as_xyz
  1  'x, y, z'
  2  '-y, x-y, z'
  3  '-x+y, -x, z'
  4  '-y, -x, z'
  5  '-x+y, y, z'
  6  'x, x-y, z'
loop_
 _atom_site_type_symbol
 _atom_site_label
 _atom_site_symmetry_multiplicity
 _atom_site_fract_x
 _atom_site_fract_y
 _atom_site_fract_z
 _atom_site_occupancy
  Si  Si0  1  0.00000000  0.00000000  0.00001700  1.0
  Si  Si1  1  0.00000000  0.00000000  0.07410800  1.0
  Si  Si2  1  0.00000000  0.00000000  0.22223200  1.0
  Si  Si3  1  0.00000000  0.00000000  0.33333333  1.0
  Si  Si4  1  0.00000000  0.00000000  0.44445300  1.0
  Si  Si5  1  0.00000000  0.00000000  0.55556600  1.0
  Si  Si6  1  0.00000000  0.00000000  0.66666667  1.0
  Si  Si7  1  0.00000000  0.00000000  0.77778600  1.0
  Si  Si8  1  0.00000000  0.00000000  0.92592500  1.0
  Si  Si9  1  0.33333333  0.66666667  0.03705000  1.0
  Si  Si10  1  0.33333333  0.66666667  0.14816200  1.0
  Si  Si11  1  0.33333333  0.66666667  0.29629300  1.0
  Si  Si12  1  0.33333333  0.66666667  0.37040300  1.0
  Si  Si13  1  0.33333333  0.66666667  0.51851400  1.0
  Si  Si14  1  0.33333333  0.66666667  0.59262200  1.0
  Si  Si15  1  0.33333333  0.66666667  0.74073500  1.0
  Si  Si16  1  0.33333333  0.66666667  0.81482800  1.0
  Si  Si17  1  0.33333333  0.66666667  0.88892900  1.0
  Si  Si18  1  0.66666667  0.33333333  0.11110300  1.0
  Si  Si19  1  0.66666667  0.33333333  0.18520500  1.0
  Si  Si20  1  0.66666667  0.33333333  0.25929200  1.0
  Si  Si21  1  0.66666667  0.33333333  0.40739900  1.0
  Si  Si22  1  0.66666667  0.33333333  0.48151400  1.0
  Si  Si23  1  0.66666667  0.33333333  0.62962000  1.0
  Si  Si24  1  0.66666667  0.33333333  0.70373600  1.0
  Si  Si25  1  0.66666667  0.33333333  0.85186200  1.0
  Si  Si26  1  0.66666667  0.33333333  0.96297300  1.0
  C  C27  1  0.00000000  0.00000000  0.04632300  1.0
  C  C28  1  0.00000000  0.00000000  0.19437500  1.0
  C  C29  1  0.00000000  0.00000000  0.30549700  1.0
  C  C30  1  0.00000000  0.00000000  0.41660600  1.0
  C  C31  1  0.00000000  0.00000000  0.52771000  1.0
  C  C32  1  0.00000000  0.00000000  0.63882200  1.0
  C  C33  1  0.00000000  0.00000000  0.74993000  1.0
  C  C34  1  0.00000000  0.00000000  0.89814400  1.0
  C  C35  1  0.00000000  0.00000000  0.97226300  1.0
  C  C36  1  0.33333333  0.66666667  0.00918600  1.0
  C  C37  1  0.33333333  0.66666667  0.12030100  1.0
  C  C38  1  0.33333333  0.66666667  0.26852100  1.0
  C  C39  1  0.33333333  0.66666667  0.34263100  1.0
  C  C40  1  0.33333333  0.66666667  0.49073700  1.0
  C  C41  1  0.33333333  0.66666667  0.56484500  1.0
  C  C42  1  0.33333333  0.66666667  0.71295900  1.0
  C  C43  1  0.33333333  0.66666667  0.78707400  1.0
  C  C44  1  0.33333333  0.66666667  0.86114300  1.0
  C  C45  1  0.66666667  0.33333333  0.08332600  1.0
  C  C46  1  0.66666667  0.33333333  0.15744400  1.0
  C  C47  1  0.66666667  0.33333333  0.23150800  1.0
  C  C48  1  0.66666667  0.33333333  0.37962600  1.0
  C  C49  1  0.66666667  0.33333333  0.45374100  1.0
  C  C50  1  0.66666667  0.33333333  0.60184800  1.0
  C  C51  1  0.66666667  0.33333333  0.67595600  1.0
  C  C52  1  0.66666667  0.33333333  0.82400600  1.0
  C  C53  1  0.66666667  0.33333333  0.93511900  1.0
