# generated using pymatgen
data_SiC
_symmetry_space_group_name_H-M   P6_3mc
_cell_length_a   3.09488400
_cell_length_b   3.09488386
_cell_length_c   15.18453100
_cell_angle_alpha   90.00000000
_cell_angle_beta   90.00000000
_cell_angle_gamma   120.00000153
_symmetry_Int_Tables_number   186
_chemical_formula_structural   SiC
_chemical_formula_sum   'Si6 C6'
_cell_volume   125.95654502
_cell_formula_units_Z   6
loop_
 _symmetry_equiv_pos_site_id
 _symmetry_equiv_pos_as_xyz
  1  'x, y, z'
  2  'x-y, x, z+1/2'
  3  '-y, x-y, z'
  4  '-x, -y, z+1/2'
  5  '-x+y, -x, z'
  6  'y, -x+y, z+1/2'
  7  'y, x, z+1/2'
  8  'x, x-y, z'
  9  'x-y, -y, z+1/2'
  10  '-y, -x, z'
  11  '-x, -x+y, z+1/2'
  12  '-x+y, y, z'
loop_
 _atom_site_type_symbol
 _atom_site_label
 _atom_site_symmetry_multiplicity
 _atom_site_fract_x
 _atom_site_fract_y
 _atom_site_fract_z
 _atom_site_occupancy
  Si  Si0  2  0.00000000  0.00000000  0.00027700  1.0
  Si  Si1  2  0.33333333  0.66666667  0.33349100  1.0
  Si  Si2  2  0.33333333  0.66666667  0.66701400  1.0
  C  C3  2  0.00000000  0.00000000  0.12564800  1.0
  C  C4  2  0.33333333  0.66666667  0.45847400  1.0
  C  C5  2  0.33333333  0.66666667  0.79199600  1.0
