# generated using pymatgen
data_SiC
_symmetry_space_group_name_H-M   R3m
_cell_length_a   3.09819922
_cell_length_b   3.09819922
_cell_length_c   63.19012442
_cell_angle_alpha   88.59525918
_cell_angle_beta   88.59525918
_cell_angle_gamma   60.00001675
_symmetry_Int_Tables_number   160
_chemical_formula_structural   SiC
_chemical_formula_sum   'Si25 C25'
_cell_volume   525.07884910
_cell_formula_units_Z   25
loop_
 _symmetry_equiv_pos_site_id
 _symmetry_equiv_pos_as_xyz
  1  'x, y, z'
  2  'y, -x-y-z, z'
  3  '-x-y-z, x, z'
  4  'x, -x-y-z, z'
  5  'y, x, z'
  6  '-x-y-z, y, z'
loop_
 _atom_site_type_symbol
 _atom_site_label
 _atom_site_symmetry_multiplicity
 _atom_site_fract_x
 _atom_site_fract_y
 _atom_site_fract_z
 _atom_site_occupancy
  Si  Si0  1  0.03997100  0.03997100  0.88008600  1.0
  Si  Si1  1  0.09313100  0.09313100  0.72060700  1.0
  Si  Si2  1  0.11994600  0.11994600  0.64016100  1.0
  Si  Si3  1  0.14682200  0.14682200  0.55953500  1.0
  Si  Si4  1  0.20003600  0.20003600  0.39989200  1.0
  Si  Si5  1  0.25331600  0.25331600  0.24005300  1.0
  Si  Si6  1  0.27997600  0.27997600  0.16007200  1.0
  Si  Si7  1  0.30665300  0.30665300  0.08004200  1.0
  Si  Si8  1  0.35998300  0.35998300  0.92005000  1.0
  Si  Si9  1  0.38659100  0.38659100  0.84022600  1.0
  Si  Si10  1  0.41316200  0.41316200  0.76051300  1.0
  Si  Si11  1  0.46673300  0.46673300  0.59980000  1.0
  Si  Si12  1  0.50679700  0.50679700  0.47960800  1.0
  Si  Si13  1  0.55999300  0.55999300  0.32002000  1.0
  Si  Si14  1  0.59998800  0.59998800  0.20003700  1.0
  Si  Si15  1  0.65331000  0.65331000  0.04007000  1.0
  Si  Si16  1  0.67998300  0.67998300  0.96005000  1.0
  Si  Si17  1  0.73321100  0.73321100  0.80036700  1.0
  Si  Si18  1  0.77318300  0.77318300  0.68045000  1.0
  Si  Si19  1  0.82682100  0.82682100  0.51953700  1.0
  Si  Si20  1  0.85341000  0.85341000  0.43977100  1.0
  Si  Si21  1  0.88000100  0.88000100  0.35999800  1.0
  Si  Si22  1  0.90666200  0.90666200  0.28001300  1.0
  Si  Si23  1  0.95998000  0.95998000  0.12006100  1.0
  Si  Si24  1  0.99998100  0.99998100  0.00005600  1.0
  C  C25  1  0.01003400  0.01003400  0.96989800  1.0
  C  C26  1  0.04999200  0.04999200  0.85002300  1.0
  C  C27  1  0.10316600  0.10316600  0.69050300  1.0
  C  C28  1  0.13004300  0.13004300  0.60987200  1.0
  C  C29  1  0.15685600  0.15685600  0.52943300  1.0
  C  C30  1  0.21006000  0.21006000  0.36981900  1.0
  C  C31  1  0.26333000  0.26333000  0.21000900  1.0
  C  C32  1  0.29000500  0.29000500  0.12998600  1.0
  C  C33  1  0.31667000  0.31667000  0.04999100  1.0
  C  C34  1  0.36998300  0.36998300  0.89005100  1.0
  C  C35  1  0.39657200  0.39657200  0.81028500  1.0
  C  C36  1  0.42316900  0.42316900  0.73049300  1.0
  C  C37  1  0.47684400  0.47684400  0.56946900  1.0
  C  C38  1  0.51681200  0.51681200  0.44956500  1.0
  C  C39  1  0.57002300  0.57002300  0.28993100  1.0
  C  C40  1  0.61004300  0.61004300  0.16987000  1.0
  C  C41  1  0.66332500  0.66332500  0.01002500  1.0
  C  C42  1  0.69000100  0.69000100  0.92999800  1.0
  C  C43  1  0.74322900  0.74322900  0.77031400  1.0
  C  C44  1  0.78329000  0.78329000  0.65013100  1.0
  C  C45  1  0.83681800  0.83681800  0.48954500  1.0
  C  C46  1  0.86340000  0.86340000  0.40980100  1.0
  C  C47  1  0.88999800  0.88999800  0.33000700  1.0
  C  C48  1  0.91666700  0.91666700  0.24999900  1.0
  C  C49  1  0.97003200  0.97003200  0.08990500  1.0
