# generated using pymatgen
data_SiC
_symmetry_space_group_name_H-M   R3m
_cell_length_a   3.09206762
_cell_length_b   3.09206762
_cell_length_c   43.05839039
_cell_angle_alpha   87.94232208
_cell_angle_beta   87.94232208
_cell_angle_gamma   60.00000812
_symmetry_Int_Tables_number   160
_chemical_formula_structural   SiC
_chemical_formula_sum   'Si17 C17'
_cell_volume   356.21552131
_cell_formula_units_Z   17
loop_
 _symmetry_equiv_pos_site_id
 _symmetry_equiv_pos_as_xyz
  1  'x, y, z'
  2  'y, -x-y-z, z'
  3  '-x-y-z, x, z'
  4  'y, x, z'
  5  '-x-y-z, y, z'
  6  'x, -x-y-z, z'
loop_
 _atom_site_type_symbol
 _atom_site_label
 _atom_site_symmetry_multiplicity
 _atom_site_fract_x
 _atom_site_fract_y
 _atom_site_fract_z
 _atom_site_occupancy
  Si  Si0  1  0.00007700  0.00007700  0.99977000  1.0
  Si  Si1  1  0.05895100  0.05895100  0.82314800  1.0
  Si  Si2  1  0.13722500  0.13722500  0.58832500  1.0
  Si  Si3  1  0.21564100  0.21564100  0.35307800  1.0
  Si  Si4  1  0.29422500  0.29422500  0.11732600  1.0
  Si  Si5  1  0.37261700  0.37261700  0.88214900  1.0
  Si  Si6  1  0.41183400  0.41183400  0.76449800  1.0
  Si  Si7  1  0.45092800  0.45092800  0.64721500  1.0
  Si  Si8  1  0.49014400  0.49014400  0.52956800  1.0
  Si  Si9  1  0.52933900  0.52933900  0.41198400  1.0
  Si  Si10  1  0.56861500  0.56861500  0.29415500  1.0
  Si  Si11  1  0.60792200  0.60792200  0.17623400  1.0
  Si  Si12  1  0.64714400  0.64714400  0.05856900  1.0
  Si  Si13  1  0.68634300  0.68634300  0.94097200  1.0
  Si  Si14  1  0.76466000  0.76466000  0.70602100  1.0
  Si  Si15  1  0.84307700  0.84307700  0.47076800  1.0
  Si  Si16  1  0.92159200  0.92159200  0.23522300  1.0
  C  C17  1  0.01481200  0.01481200  0.95556500  1.0
  C  C18  1  0.07370400  0.07370400  0.77888900  1.0
  C  C19  1  0.15195100  0.15195100  0.54414600  1.0
  C  C20  1  0.23042200  0.23042200  0.30873300  1.0
  C  C21  1  0.30895100  0.30895100  0.07314700  1.0
  C  C22  1  0.38735700  0.38735700  0.83792900  1.0
  C  C23  1  0.42647200  0.42647200  0.72058300  1.0
  C  C24  1  0.46564800  0.46564800  0.60305700  1.0
  C  C25  1  0.50483100  0.50483100  0.48550800  1.0
  C  C26  1  0.54405300  0.54405300  0.36784100  1.0
  C  C27  1  0.58334900  0.58334900  0.24995200  1.0
  C  C28  1  0.62264800  0.62264800  0.13205600  1.0
  C  C29  1  0.66183100  0.66183100  0.01450700  1.0
  C  C30  1  0.70106000  0.70106000  0.89682100  1.0
  C  C31  1  0.77939100  0.77939100  0.66182800  1.0
  C  C32  1  0.85781000  0.85781000  0.42657000  1.0
  C  C33  1  0.93637700  0.93637700  0.19086800  1.0
