# generated using pymatgen
data_SiC
_symmetry_space_group_name_H-M   R3m
_cell_length_a   3.09851327
_cell_length_b   3.09851358
_cell_length_c   32.90377991
_cell_angle_alpha   87.30125623
_cell_angle_beta   87.30125576
_cell_angle_gamma   60.00000853
_symmetry_Int_Tables_number   160
_chemical_formula_structural   SiC
_chemical_formula_sum   'Si13 C13'
_cell_volume   273.17465297
_cell_formula_units_Z   13
loop_
 _symmetry_equiv_pos_site_id
 _symmetry_equiv_pos_as_xyz
  1  'x, y, z'
  2  '-x-y-z, x, z'
  3  'y, -x-y-z, z'
  4  'x, -x-y-z, z'
  5  '-x-y-z, y, z'
  6  'y, x, z'
loop_
 _atom_site_type_symbol
 _atom_site_label
 _atom_site_symmetry_multiplicity
 _atom_site_fract_x
 _atom_site_fract_y
 _atom_site_fract_z
 _atom_site_occupancy
  Si  Si0  1  0.07690200  0.07690200  0.76929400  1.0
  Si  Si1  1  0.15383000  0.15383000  0.53851000  1.0
  Si  Si2  1  0.23075600  0.23075600  0.30773200  1.0
  Si  Si3  1  0.30765500  0.30765500  0.07703500  1.0
  Si  Si4  1  0.35896100  0.35896100  0.92311700  1.0
  Si  Si5  1  0.46150500  0.46150500  0.61548500  1.0
  Si  Si6  1  0.51281000  0.51281000  0.46157000  1.0
  Si  Si7  1  0.61536500  0.61536500  0.15390500  1.0
  Si  Si8  1  0.71791300  0.71791300  0.84626100  1.0
  Si  Si9  1  0.76921700  0.76921700  0.69234900  1.0
  Si  Si10  1  0.87176300  0.87176300  0.38471100  1.0
  Si  Si11  1  0.92307100  0.92307100  0.23078700  1.0
  Si  Si12  1  0.99998000  0.99998000  0.00006000  1.0
  C  C13  1  0.01929600  0.01929600  0.94211200  1.0
  C  C14  1  0.09622100  0.09622100  0.71133700  1.0
  C  C15  1  0.17314200  0.17314200  0.48057400  1.0
  C  C16  1  0.25006900  0.25006900  0.24979300  1.0
  C  C17  1  0.32690400  0.32690400  0.01928800  1.0
  C  C18  1  0.37821600  0.37821600  0.86535200  1.0
  C  C19  1  0.48075300  0.48075300  0.55774100  1.0
  C  C20  1  0.53206700  0.53206700  0.40379900  1.0
  C  C21  1  0.63461800  0.63461800  0.09614600  1.0
  C  C22  1  0.73715800  0.73715800  0.78852600  1.0
  C  C23  1  0.78847800  0.78847800  0.63456600  1.0
  C  C24  1  0.89101100  0.89101100  0.32696700  1.0
  C  C25  1  0.94232900  0.94232900  0.17301300  1.0
