# generated using pymatgen
data_Ta4WC5
_symmetry_space_group_name_H-M   R-3m
_cell_length_a   3.15203199
_cell_length_b   3.15203199
_cell_length_c   13.03974781
_cell_angle_alpha   83.05812257
_cell_angle_beta   83.05812257
_cell_angle_gamma   60.00000029
_symmetry_Int_Tables_number   166
_chemical_formula_structural   Ta4WC5
_chemical_formula_sum   'Ta4 W1 C5'
_cell_volume   111.09895113
_cell_formula_units_Z   1
loop_
 _symmetry_equiv_pos_site_id
 _symmetry_equiv_pos_as_xyz
  1  'x, y, z'
  2  '-x, -y, -z'
  3  '-x-y-z, x, z'
  4  'x+y+z, -x, -z'
  5  'y, -x-y-z, z'
  6  '-y, x+y+z, -z'
  7  '-x, x+y+z, -z'
  8  'x, -x-y-z, z'
  9  'x+y+z, -y, -z'
  10  '-x-y-z, y, z'
  11  '-y, -x, -z'
  12  'y, x, z'
loop_
 _atom_site_type_symbol
 _atom_site_label
 _atom_site_symmetry_multiplicity
 _atom_site_fract_x
 _atom_site_fract_y
 _atom_site_fract_z
 _atom_site_occupancy
  Ta  Ta0  2  0.10044400  0.10044400  0.69866800  1.0
  Ta  Ta1  2  0.29954800  0.29954800  0.10135600  1.0
  W  W2  1  0.50000000  0.50000000  0.50000000  1.0
  C  C3  2  0.19885300  0.19885300  0.40344100  1.0
  C  C4  2  0.40071400  0.40071400  0.79785800  1.0
  C  C5  1  0.00000000  0.00000000  0.00000000  1.0
