# generated using pymatgen
data_V2C
_symmetry_space_group_name_H-M   P-3m1
_cell_length_a   2.89300400
_cell_length_b   2.89300317
_cell_length_c   4.53209600
_cell_angle_alpha   90.00000000
_cell_angle_beta   90.00000000
_cell_angle_gamma   120.00000948
_symmetry_Int_Tables_number   164
_chemical_formula_structural   V2C
_chemical_formula_sum   'V2 C1'
_cell_volume   32.84941460
_cell_formula_units_Z   1
loop_
 _symmetry_equiv_pos_site_id
 _symmetry_equiv_pos_as_xyz
  1  'x, y, z'
  2  '-x, -y, -z'
  3  '-y, x-y, z'
  4  'y, -x+y, -z'
  5  '-x+y, -x, z'
  6  'x-y, x, -z'
  7  'y, x, -z'
  8  '-y, -x, z'
  9  'x-y, -y, -z'
  10  '-x+y, y, z'
  11  '-x, -x+y, -z'
  12  'x, x-y, z'
loop_
 _atom_site_type_symbol
 _atom_site_label
 _atom_site_symmetry_multiplicity
 _atom_site_fract_x
 _atom_site_fract_y
 _atom_site_fract_z
 _atom_site_occupancy
  V  V0  2  0.33333333  0.66666667  0.25310200  1.0
  C  C1  1  0.00000000  0.00000000  0.00000000  1.0
