# generated using pymatgen
data_V2C
_symmetry_space_group_name_H-M   Pbcn
_cell_length_a   4.55693600
_cell_length_b   5.04307500
_cell_length_c   5.73379900
_cell_angle_alpha   90.00000000
_cell_angle_beta   90.00000000
_cell_angle_gamma   90.00000000
_symmetry_Int_Tables_number   60
_chemical_formula_structural   V2C
_chemical_formula_sum   'V8 C4'
_cell_volume   131.76826291
_cell_formula_units_Z   4
loop_
 _symmetry_equiv_pos_site_id
 _symmetry_equiv_pos_as_xyz
  1  'x, y, z'
  2  '-x, -y, -z'
  3  '-x+1/2, y+1/2, -z+1/2'
  4  'x+1/2, -y+1/2, z+1/2'
  5  'x+1/2, -y, -z+1/2'
  6  '-x+1/2, y, z+1/2'
  7  '-x, -y+1/2, z'
  8  'x, y+1/2, -z'
loop_
 _atom_site_type_symbol
 _atom_site_label
 _atom_site_symmetry_multiplicity
 _atom_site_fract_x
 _atom_site_fract_y
 _atom_site_fract_z
 _atom_site_occupancy
  V  V0  8  0.24598400  0.07637500  0.88187300  1.0
  C  C1  4  0.00000000  0.25000000  0.62723800  1.0
