# generated using pymatgen
data_W2C
_symmetry_space_group_name_H-M   P-31m
_cell_length_a   4.77941200
_cell_length_b   5.25685400
_cell_length_c   5.25685391
_cell_angle_alpha   120.00000059
_cell_angle_beta   90.00000000
_cell_angle_gamma   90.00000000
_symmetry_Int_Tables_number   162
_chemical_formula_structural   W2C
_chemical_formula_sum   'W6 C3'
_cell_volume   114.38179881
_cell_formula_units_Z   3
loop_
 _symmetry_equiv_pos_site_id
 _symmetry_equiv_pos_as_xyz
  1  'x, y, z'
  2  '-x, -y, -z'
  3  'x, -z, y-z'
  4  '-x, z, -y+z'
  5  'x, -y+z, -y'
  6  '-x, y-z, y'
  7  '-x, -y+z, z'
  8  'x, y-z, -z'
  9  '-x, y, y-z'
  10  'x, -y, -y+z'
  11  '-x, -z, -y'
  12  'x, z, y'
loop_
 _atom_site_type_symbol
 _atom_site_label
 _atom_site_symmetry_multiplicity
 _atom_site_fract_x
 _atom_site_fract_y
 _atom_site_fract_z
 _atom_site_occupancy
  W  W0  6  0.24789600  0.00000000  0.66797400  1.0
  C  C1  2  0.50000000  0.33333333  0.66666667  1.0
  C  C2  1  0.00000000  0.00000000  0.00000000  1.0
