# generated using pymatgen
data_CeNiC2
_symmetry_space_group_name_H-M   Amm2
_cell_length_a   3.76805523
_cell_length_b   3.76805523
_cell_length_c   3.82281600
_cell_angle_alpha   90.00000000
_cell_angle_beta   90.00000000
_cell_angle_gamma   105.76606169
_symmetry_Int_Tables_number   38
_chemical_formula_structural   CeNiC2
_chemical_formula_sum   'Ce1 Ni1 C2'
_cell_volume   52.23530083
_cell_formula_units_Z   1
loop_
 _symmetry_equiv_pos_site_id
 _symmetry_equiv_pos_as_xyz
  1  'x, y, z'
  2  '-y, -x, -z'
  3  'x, y, -z'
  4  '-y, -x, z'
loop_
 _atom_site_type_symbol
 _atom_site_label
 _atom_site_symmetry_multiplicity
 _atom_site_fract_x
 _atom_site_fract_y
 _atom_site_fract_z
 _atom_site_occupancy
  Ce  Ce0  1  0.99425600  0.00574400  0.00000000  1.0
  Ni  Ni1  1  0.60008900  0.39991100  0.50000000  1.0
  C  C2  2  0.13587500  0.55862000  0.50000000  1.0
