# generated using pymatgen
data_Cr3C2
_symmetry_space_group_name_H-M   Cmcm
_cell_length_a   2.81550000
_cell_length_b   4.82156599
_cell_length_c   6.91668800
_cell_angle_alpha   90.00000000
_cell_angle_beta   90.00000000
_cell_angle_gamma   106.97590133
_symmetry_Int_Tables_number   63
_chemical_formula_structural   Cr3C2
_chemical_formula_sum   'Cr6 C4'
_cell_volume   89.80364253
_cell_formula_units_Z   2
loop_
 _symmetry_equiv_pos_site_id
 _symmetry_equiv_pos_as_xyz
  1  'x, y, z'
  2  '-x, -y, -z'
  3  '-x, -y, z+1/2'
  4  'x, y, -z+1/2'
  5  'x-y, -y, -z'
  6  '-x+y, y, z'
  7  '-x+y, y, -z+1/2'
  8  'x-y, -y, z+1/2'
loop_
 _atom_site_type_symbol
 _atom_site_label
 _atom_site_symmetry_multiplicity
 _atom_site_fract_x
 _atom_site_fract_y
 _atom_site_fract_z
 _atom_site_occupancy
  Cr  Cr0  4  0.14350200  0.28700400  0.07001200  1.0
  Cr  Cr1  2  0.40111600  0.80223200  0.25000000  1.0
  C  C2  2  0.24602900  0.49205800  0.75000000  1.0
  C  C3  2  0.50000000  0.00000000  0.00000000  1.0
