# generated using pymatgen
data_Cr3C2
_symmetry_space_group_name_H-M   Pnma
_cell_length_a   2.78836900
_cell_length_b   5.48245000
_cell_length_c   11.51010000
_cell_angle_alpha   90.00000000
_cell_angle_beta   90.00000000
_cell_angle_gamma   90.00000000
_symmetry_Int_Tables_number   62
_chemical_formula_structural   Cr3C2
_chemical_formula_sum   'Cr12 C8'
_cell_volume   175.95597632
_cell_formula_units_Z   4
loop_
 _symmetry_equiv_pos_site_id
 _symmetry_equiv_pos_as_xyz
  1  'x, y, z'
  2  '-x, -y, -z'
  3  '-x, -y+1/2, z+1/2'
  4  'x, y+1/2, -z+1/2'
  5  '-x+1/2, y+1/2, -z+1/2'
  6  'x+1/2, -y+1/2, z+1/2'
  7  'x+1/2, -y, -z'
  8  '-x+1/2, y, z'
loop_
 _atom_site_type_symbol
 _atom_site_label
 _atom_site_symmetry_multiplicity
 _atom_site_fract_x
 _atom_site_fract_y
 _atom_site_fract_z
 _atom_site_occupancy
  Cr  Cr0  4  0.25000000  0.13372800  0.06822600  1.0
  Cr  Cr1  4  0.25000000  0.31644100  0.27364300  1.0
  Cr  Cr2  4  0.25000000  0.48330700  0.90316600  1.0
  C  C3  4  0.25000000  0.26290900  0.45096600  1.0
  C  C4  4  0.25000000  0.39866700  0.70230600  1.0
