# generated using pymatgen
data_HoC2
_symmetry_space_group_name_H-M   I4/mmm
_cell_length_a   3.64732000
_cell_length_b   4.02407153
_cell_length_c   3.64732000
_cell_angle_alpha   116.94839263
_cell_angle_beta   90.00000000
_cell_angle_gamma   116.94839263
_symmetry_Int_Tables_number   139
_chemical_formula_structural   HoC2
_chemical_formula_sum   'Ho1 C2'
_cell_volume   41.09227271
_cell_formula_units_Z   1
loop_
 _symmetry_equiv_pos_site_id
 _symmetry_equiv_pos_as_xyz
  1  'x, y, z'
  2  '-x, -y, -z'
  3  'y-z, y, x'
  4  '-y+z, -y, -x'
  5  '-x+y, y, y-z'
  6  'x-y, -y, -y+z'
  7  'z, y, -x+y'
  8  '-z, -y, x-y'
  9  'x-y, -y, -z'
  10  '-x+y, y, z'
  11  '-z, -y, -x'
  12  'z, y, x'
  13  '-x, -y, -y+z'
  14  'x, y, y-z'
  15  '-y+z, -y, x-y'
  16  'y-z, y, -x+y'
loop_
 _atom_site_type_symbol
 _atom_site_label
 _atom_site_symmetry_multiplicity
 _atom_site_fract_x
 _atom_site_fract_y
 _atom_site_fract_z
 _atom_site_occupancy
  Ho  Ho0  1  0.00000000  0.00000000  0.00000000  1.0
  C  C1  2  0.39443200  0.78886400  0.39443200  1.0
