# generated using pymatgen
data_LaC2
_symmetry_space_group_name_H-M   I4/mmm
_cell_length_a   3.93816800
_cell_length_b   4.31381491
_cell_length_c   3.93816800
_cell_angle_alpha   117.15891327
_cell_angle_beta   90.00000000
_cell_angle_gamma   117.15891327
_symmetry_Int_Tables_number   139
_chemical_formula_structural   LaC2
_chemical_formula_sum   'La1 C2'
_cell_volume   51.09656423
_cell_formula_units_Z   1
loop_
 _symmetry_equiv_pos_site_id
 _symmetry_equiv_pos_as_xyz
  1  'x, y, z'
  2  '-x, -y, -z'
  3  'y-z, y, x'
  4  '-y+z, -y, -x'
  5  '-x+y, y, y-z'
  6  'x-y, -y, -y+z'
  7  'z, y, -x+y'
  8  '-z, -y, x-y'
  9  'x-y, -y, -z'
  10  '-x+y, y, z'
  11  '-z, -y, -x'
  12  'z, y, x'
  13  '-x, -y, -y+z'
  14  'x, y, y-z'
  15  '-y+z, -y, x-y'
  16  'y-z, y, -x+y'
loop_
 _atom_site_type_symbol
 _atom_site_label
 _atom_site_symmetry_multiplicity
 _atom_site_fract_x
 _atom_site_fract_y
 _atom_site_fract_z
 _atom_site_occupancy
  La  La0  1  0.00000000  0.00000000  0.00000000  1.0
  C  C1  2  0.40128800  0.80257600  0.40128800  1.0
