# generated using pymatgen
data_ReMoC2
_symmetry_space_group_name_H-M   R-3m
_cell_length_a   3.10271607
_cell_length_b   3.10271607
_cell_length_c   5.29737130
_cell_angle_alpha   72.97108192
_cell_angle_beta   72.97108192
_cell_angle_gamma   59.99999856
_symmetry_Int_Tables_number   166
_chemical_formula_structural   ReMoC2
_chemical_formula_sum   'Re1 Mo1 C2'
_cell_volume   41.56289547
_cell_formula_units_Z   1
loop_
 _symmetry_equiv_pos_site_id
 _symmetry_equiv_pos_as_xyz
  1  'x, y, z'
  2  '-x, -y, -z'
  3  '-x-y-z, x, z'
  4  'x+y+z, -x, -z'
  5  'y, -x-y-z, z'
  6  '-y, x+y+z, -z'
  7  '-x, x+y+z, -z'
  8  'x, -x-y-z, z'
  9  'x+y+z, -y, -z'
  10  '-x-y-z, y, z'
  11  '-y, -x, -z'
  12  'y, x, z'
loop_
 _atom_site_type_symbol
 _atom_site_label
 _atom_site_symmetry_multiplicity
 _atom_site_fract_x
 _atom_site_fract_y
 _atom_site_fract_z
 _atom_site_occupancy
  Re  Re0  1  0.00000000  0.00000000  0.00000000  1.0
  Mo  Mo1  1  0.50000000  0.50000000  0.50000000  1.0
  C  C2  2  0.25135400  0.25135400  0.24593800  1.0
