# generated using pymatgen
data_NdC2
_symmetry_space_group_name_H-M   I4/mmm
_cell_length_a   3.84241800
_cell_length_b   4.22449394
_cell_length_c   3.84241800
_cell_angle_alpha   62.94931682
_cell_angle_beta   89.99999999
_cell_angle_gamma   117.05068318
_symmetry_Int_Tables_number   139
_chemical_formula_structural   NdC2
_chemical_formula_sum   'Nd1 C2'
_cell_volume   47.75990980
_cell_formula_units_Z   1
loop_
 _symmetry_equiv_pos_site_id
 _symmetry_equiv_pos_as_xyz
  1  'x, y, z'
  2  '-x, -y, -z'
  3  '-z, y, x-y'
  4  'z, -y, -x+y'
  5  '-x+y, y, -y-z'
  6  'x-y, -y, y+z'
  7  'y+z, y, -x'
  8  '-y-z, -y, x'
  9  '-x, -y, y+z'
  10  'x, y, -y-z'
  11  'z, -y, x'
  12  '-z, y, -x'
  13  'x-y, -y, -z'
  14  '-x+y, y, z'
  15  '-y-z, -y, -x+y'
  16  'y+z, y, x-y'
loop_
 _atom_site_type_symbol
 _atom_site_label
 _atom_site_symmetry_multiplicity
 _atom_site_fract_x
 _atom_site_fract_y
 _atom_site_fract_z
 _atom_site_occupancy
  Nd  Nd0  1  0.00000000  0.00000000  0.00000000  1.0
  C  C1  2  0.39968100  0.79936200  0.60031900  1.0
