# generated using pymatgen
data_PrC2
_symmetry_space_group_name_H-M   I4/mmm
_cell_length_a   3.88042600
_cell_length_b   4.26265500
_cell_length_c   3.88042600
_cell_angle_alpha   62.92442418
_cell_angle_beta   90.00000000
_cell_angle_gamma   117.07557581
_symmetry_Int_Tables_number   139
_chemical_formula_structural   PrC2
_chemical_formula_sum   'Pr1 C2'
_cell_volume   49.11992321
_cell_formula_units_Z   1
loop_
 _symmetry_equiv_pos_site_id
 _symmetry_equiv_pos_as_xyz
  1  'x, y, z'
  2  '-x, -y, -z'
  3  '-z, y, x-y'
  4  'z, -y, -x+y'
  5  '-x+y, y, -y-z'
  6  'x-y, -y, y+z'
  7  'y+z, y, -x'
  8  '-y-z, -y, x'
  9  'x-y, -y, -z'
  10  '-x+y, y, z'
  11  '-y-z, -y, -x+y'
  12  'y+z, y, x-y'
  13  '-x, -y, y+z'
  14  'x, y, -y-z'
  15  'z, -y, x'
  16  '-z, y, -x'
loop_
 _atom_site_type_symbol
 _atom_site_label
 _atom_site_symmetry_multiplicity
 _atom_site_fract_x
 _atom_site_fract_y
 _atom_site_fract_z
 _atom_site_occupancy
  Pr  Pr0  1  0.00000000  0.00000000  0.00000000  1.0
  C  C1  2  0.40057700  0.80115400  0.59942300  1.0
