# generated using pymatgen
data_U2Pt0.95Rh0.05C2
_symmetry_space_group_name_H-M   I4/mmm
_cell_length_a   3.52329400
_cell_length_b   3.52329400
_cell_length_c   6.73411484
_cell_angle_alpha   105.16504423
_cell_angle_beta   105.16504423
_cell_angle_gamma   90.00000000
_symmetry_Int_Tables_number   139
_chemical_formula_structural   U2Pt0.95Rh0.05C2
_chemical_formula_sum   'U2 Pt0.95 Rh0.05 C2'
_cell_volume   77.66342050
_cell_formula_units_Z   1
loop_
 _symmetry_equiv_pos_site_id
 _symmetry_equiv_pos_as_xyz
  1  'x, y, z'
  2  '-x, -y, -z'
  3  '-y+z, x, z'
  4  'y-z, -x, -z'
  5  '-x+z, -y+z, z'
  6  'x-z, y-z, -z'
  7  'y, -x+z, z'
  8  '-y, x-z, -z'
  9  'x-z, -y, -z'
  10  '-x+z, y, z'
  11  '-y, -x, -z'
  12  'y, x, z'
  13  '-x, y-z, -z'
  14  'x, -y+z, z'
  15  'y-z, x-z, -z'
  16  '-y+z, -x+z, z'
loop_
 _atom_site_type_symbol
 _atom_site_label
 _atom_site_symmetry_multiplicity
 _atom_site_fract_x
 _atom_site_fract_y
 _atom_site_fract_z
 _atom_site_occupancy
  U  U0  2  0.35130600  0.35130600  0.70261200  1.0
  Pt  Pt1  1  0.00000000  0.00000000  0.00000000  0.95
  Rh  Rh2  1  0.00000000  0.00000000  0.00000000  0.05
  C  C3  2  0.16868800  0.16868800  0.33737600  1.0
