# generated using pymatgen
data_Cr7C3
_symmetry_space_group_name_H-M   P6_3mc
_cell_length_a   4.47658100
_cell_length_b   13.93798000
_cell_length_c   13.93797934
_cell_angle_alpha   120.00000155
_cell_angle_beta   90.00000000
_cell_angle_gamma   90.00000000
_symmetry_Int_Tables_number   186
_chemical_formula_structural   Cr7C3
_chemical_formula_sum   'Cr56 C24'
_cell_volume   753.14175400
_cell_formula_units_Z   8
loop_
 _symmetry_equiv_pos_site_id
 _symmetry_equiv_pos_as_xyz
  1  'x, y, z'
  2  'x+1/2, z, -y+z'
  3  'x, -y+z, -y'
  4  'x+1/2, -y, -z'
  5  'x, -z, y-z'
  6  'x+1/2, y-z, y'
  7  'x+1/2, y-z, -z'
  8  'x, y, y-z'
  9  'x+1/2, z, y'
  10  'x, -y+z, z'
  11  'x+1/2, -y, -y+z'
  12  'x, -z, -y'
loop_
 _atom_site_type_symbol
 _atom_site_label
 _atom_site_symmetry_multiplicity
 _atom_site_fract_x
 _atom_site_fract_y
 _atom_site_fract_z
 _atom_site_occupancy
  Cr  Cr0  12  0.05255100  0.06215400  0.43741800  1.0
  Cr  Cr1  12  0.24317000  0.27159000  0.04451900  1.0
  Cr  Cr2  6  0.05202700  0.56174500  0.43825500  1.0
  Cr  Cr3  6  0.24177900  0.16679700  0.33359400  1.0
  Cr  Cr4  6  0.24725000  0.27294300  0.54588600  1.0
  Cr  Cr5  6  0.25097800  0.45513600  0.22756800  1.0
  Cr  Cr6  6  0.44392100  0.06129100  0.12258300  1.0
  Cr  Cr7  2  0.21801700  0.66666667  0.33333333  1.0
  C  C8  12  0.46787500  0.09417000  0.40668100  1.0
  C  C9  6  0.03443300  0.09419800  0.18839700  1.0
  C  C10  6  0.46334400  0.59457600  0.18915300  1.0
