# generated using pymatgen
data_Cr7C3
_symmetry_space_group_name_H-M   Pnma
_cell_length_a   4.50568700
_cell_length_b   6.94450300
_cell_length_c   12.03814900
_cell_angle_alpha   90.00000000
_cell_angle_beta   90.00000000
_cell_angle_gamma   90.00000000
_symmetry_Int_Tables_number   62
_chemical_formula_structural   Cr7C3
_chemical_formula_sum   'Cr28 C12'
_cell_volume   376.67075560
_cell_formula_units_Z   4
loop_
 _symmetry_equiv_pos_site_id
 _symmetry_equiv_pos_as_xyz
  1  'x, y, z'
  2  '-x, -y, -z'
  3  '-x+1/2, -y, z+1/2'
  4  'x+1/2, y, -z+1/2'
  5  'x+1/2, -y+1/2, -z+1/2'
  6  '-x+1/2, y+1/2, z+1/2'
  7  '-x, y+1/2, -z'
  8  'x, -y+1/2, z'
loop_
 _atom_site_type_symbol
 _atom_site_label
 _atom_site_symmetry_multiplicity
 _atom_site_fract_x
 _atom_site_fract_y
 _atom_site_fract_z
 _atom_site_occupancy
  Cr  Cr0  8  0.05885500  0.06490500  0.81168300  1.0
  Cr  Cr1  8  0.24951100  0.56701900  0.52161900  1.0
  Cr  Cr2  4  0.05785500  0.25000000  0.62661600  1.0
  Cr  Cr3  4  0.24171500  0.75000000  0.91676500  1.0
  Cr  Cr4  4  0.24248200  0.25000000  0.20413700  1.0
  C  C5  8  0.03173700  0.03344700  0.34422400  1.0
  C  C6  4  0.03387000  0.75000000  0.06286700  1.0
