# generated using pymatgen
data_Lu2FeC4
_symmetry_space_group_name_H-M   Ibam
_cell_length_a   4.93263000
_cell_length_b   6.44630425
_cell_length_c   6.44630425
_cell_angle_alpha   70.37920244
_cell_angle_beta   67.50556855
_cell_angle_gamma   67.50556855
_symmetry_Int_Tables_number   72
_chemical_formula_structural   Lu2FeC4
_chemical_formula_sum   'Lu4 Fe2 C8'
_cell_volume   170.60890875
_cell_formula_units_Z   2
loop_
 _symmetry_equiv_pos_site_id
 _symmetry_equiv_pos_as_xyz
  1  'x, y, z'
  2  '-x, -y, -z'
  3  'x+y+z, -y, -z'
  4  '-x-y-z, y, z'
  5  '-x+1/2, -z, -y'
  6  'x+1/2, z, y'
  7  '-x-y-z+1/2, z, y'
  8  'x+y+z+1/2, -z, -y'
loop_
 _atom_site_type_symbol
 _atom_site_label
 _atom_site_symmetry_multiplicity
 _atom_site_fract_x
 _atom_site_fract_y
 _atom_site_fract_z
 _atom_site_occupancy
  Lu  Lu0  4  0.14570400  0.20006300  0.50852800  1.0
  Fe  Fe1  2  0.25000000  0.00000000  0.00000000  1.0
  C  C2  4  0.07777600  0.75374200  0.09070500  1.0
  C  C3  4  0.13035500  0.52765300  0.21163700  1.0
