# generated using pymatgen
data_Y2FeC4
_symmetry_space_group_name_H-M   Ibam
_cell_length_a   5.04379800
_cell_length_b   6.62141762
_cell_length_c   6.62141762
_cell_angle_alpha   68.86653391
_cell_angle_beta   67.61242020
_cell_angle_gamma   67.61242020
_symmetry_Int_Tables_number   72
_chemical_formula_structural   Y2FeC4
_chemical_formula_sum   'Y4 Fe2 C8'
_cell_volume   182.95422216
_cell_formula_units_Z   2
loop_
 _symmetry_equiv_pos_site_id
 _symmetry_equiv_pos_as_xyz
  1  'x, y, z'
  2  '-x, -y, -z'
  3  'x+y+z, -y, -z'
  4  '-x-y-z, y, z'
  5  '-x+1/2, -z, -y'
  6  'x+1/2, z, y'
  7  '-x-y-z+1/2, z, y'
  8  'x+y+z+1/2, -z, -y'
loop_
 _atom_site_type_symbol
 _atom_site_label
 _atom_site_symmetry_multiplicity
 _atom_site_fract_x
 _atom_site_fract_y
 _atom_site_fract_z
 _atom_site_occupancy
  Y  Y0  4  0.14564100  0.19685700  0.51186200  1.0
  Fe  Fe1  2  0.25000000  0.00000000  0.00000000  1.0
  C  C2  4  0.07695300  0.75764400  0.08845000  1.0
  C  C3  4  0.12820900  0.53509200  0.20849000  1.0
