# generated using pymatgen
data_Tm2FeC4
_symmetry_space_group_name_H-M   Ibam
_cell_length_a   4.97168600
_cell_length_b   6.49927350
_cell_length_c   6.49927350
_cell_angle_alpha   69.93330780
_cell_angle_beta   67.51260728
_cell_angle_gamma   67.51260727
_symmetry_Int_Tables_number   72
_chemical_formula_structural   Tm2FeC4
_chemical_formula_sum   'Tm4 Fe2 C8'
_cell_volume   174.45482193
_cell_formula_units_Z   2
loop_
 _symmetry_equiv_pos_site_id
 _symmetry_equiv_pos_as_xyz
  1  'x, y, z'
  2  '-x, -y, -z'
  3  'x+y+z, -y, -z'
  4  '-x-y-z, y, z'
  5  '-x+1/2, -z, -y'
  6  'x+1/2, z, y'
  7  '-x-y-z+1/2, z, y'
  8  'x+y+z+1/2, -z, -y'
loop_
 _atom_site_type_symbol
 _atom_site_label
 _atom_site_symmetry_multiplicity
 _atom_site_fract_x
 _atom_site_fract_y
 _atom_site_fract_z
 _atom_site_occupancy
  Tm  Tm0  4  0.14470600  0.51022600  0.20036200  1.0
  Fe  Fe1  2  0.25000000  0.00000000  0.00000000  1.0
  C  C2  4  0.07820300  0.08863600  0.75495700  1.0
  C  C3  4  0.12990000  0.20980800  0.53039200  1.0
