# generated using pymatgen
data_RbC8
_symmetry_space_group_name_H-M   Fddd
_cell_length_a   4.97328600
_cell_length_b   4.97534121
_cell_length_c   11.75634223
_cell_angle_alpha   83.93170528
_cell_angle_beta   77.78884864
_cell_angle_gamma   60.01366363
_symmetry_Int_Tables_number   70
_chemical_formula_structural   RbC8
_chemical_formula_sum   'Rb2 C16'
_cell_volume   246.25783046
_cell_formula_units_Z   2
loop_
 _symmetry_equiv_pos_site_id
 _symmetry_equiv_pos_as_xyz
  1  'x, y, z'
  2  '-x-z, -y, z'
  3  'x+y+z, -y, -z'
  4  '-x-y, y, -z'
  5  '-x+3/4, -y+1/2, -z+1/2'
  6  'x+z+3/4, y+1/2, -z+1/2'
  7  '-x-y-z+3/4, y+1/2, z+1/2'
  8  'x+y+3/4, -y+1/2, z+1/2'
loop_
 _atom_site_type_symbol
 _atom_site_label
 _atom_site_symmetry_multiplicity
 _atom_site_fract_x
 _atom_site_fract_y
 _atom_site_fract_z
 _atom_site_occupancy
  Rb  Rb0  2  0.25000000  0.50000000  0.50000000  1.0
  C  C1  8  0.04070200  0.16673700  0.25214200  1.0
  C  C2  8  0.20830500  0.83313300  0.25003300  1.0
