# generated using pymatgen
data_Sr0.28Ca1.72Cu2O4
_symmetry_space_group_name_H-M   Cmmm
_cell_length_a   3.14602400
_cell_length_b   5.77559394
_cell_length_c   5.77559360
_cell_angle_alpha   108.39571497
_cell_angle_beta   90.00000000
_cell_angle_gamma   90.00000000
_symmetry_Int_Tables_number   65
_chemical_formula_structural   Sr0.28Ca1.72Cu2O4
_chemical_formula_sum   'Sr0.28 Ca1.72 Cu2 O4'
_cell_volume   99.58079306
_cell_formula_units_Z   1
loop_
 _symmetry_equiv_pos_site_id
 _symmetry_equiv_pos_as_xyz
  1  'x, y, z'
  2  '-x, -y, -z'
  3  'x, -y, -z'
  4  '-x, y, z'
  5  '-x, z, y'
  6  'x, -z, -y'
  7  '-x, -z, -y'
  8  'x, z, y'
loop_
 _atom_site_type_symbol
 _atom_site_label
 _atom_site_symmetry_multiplicity
 _atom_site_fract_x
 _atom_site_fract_y
 _atom_site_fract_z
 _atom_site_occupancy
  Ca  Ca0  2  0.00000000  0.00000000  0.50000000  0.86
  Sr  Sr1  2  0.00000000  0.00000000  0.50000000  0.14
  Cu  Cu2  1  0.50000000  0.00000000  0.00000000  1.0
  Cu  Cu3  1  0.50000000  0.50000000  0.50000000  1.0
  O  O4  2  0.00000000  0.32078700  0.32078700  1.0
  O  O5  2  0.50000000  0.20067500  0.79932500  1.0
