# generated using pymatgen
data_Ca0.113La1.887Cu1O4
_symmetry_space_group_name_H-M   Fmm2
_cell_length_a   3.81951655
_cell_length_b   3.81951655
_cell_length_c   7.11497870
_cell_angle_alpha   105.52189428
_cell_angle_beta   105.52189435
_cell_angle_gamma   90.17230281
_symmetry_Int_Tables_number   42
_chemical_formula_structural   Ca0.113La1.887Cu1O4
_chemical_formula_sum   'Ca0.113 La1.887 Cu1 O4'
_cell_volume   96.05321514
_cell_formula_units_Z   1
loop_
 _symmetry_equiv_pos_site_id
 _symmetry_equiv_pos_as_xyz
  1  'x, y, z'
  2  '-y, -x, -z'
  3  '-y+z, -x+z, z'
  4  'x-z, y-z, -z'
loop_
 _atom_site_type_symbol
 _atom_site_label
 _atom_site_symmetry_multiplicity
 _atom_site_fract_x
 _atom_site_fract_y
 _atom_site_fract_z
 _atom_site_occupancy
  La  La0  2  0.36196400  0.36037400  0.72233800  0.9435
  Ca  Ca1  2  0.36196400  0.36037400  0.72233800  0.0565
  Cu  Cu2  1  0.99844200  0.00155800  0.00000000  1.0
  O  O3  2  0.00131400  0.50244600  0.00000000  1.0
  O  O4  2  0.15945100  0.21235000  0.37180100  1.0
