# generated using pymatgen
data_Sr4Ca0.5Tm1.5Ga2Cu4O14
_symmetry_space_group_name_H-M   Ima2
_cell_length_a   5.38520000
_cell_length_b   5.49413800
_cell_length_c   12.19093900
_cell_angle_alpha   103.02269276
_cell_angle_beta   102.76007622
_cell_angle_gamma   90.00000000
_symmetry_Int_Tables_number   46
_chemical_formula_structural   Sr4Ca0.5Tm1.5Ga2Cu4O14
_chemical_formula_sum   'Sr4 Ca0.5 Tm1.5 Ga2 Cu4 O14'
_cell_volume   342.26775628
_cell_formula_units_Z   1
loop_
 _symmetry_equiv_pos_site_id
 _symmetry_equiv_pos_as_xyz
  1  'x, y, z'
  2  'x-z, -y, -z'
  3  'x-z+1/2, y-z+1/2, -z'
  4  'x+1/2, -y+z+1/2, z'
loop_
 _atom_site_type_symbol
 _atom_site_label
 _atom_site_symmetry_multiplicity
 _atom_site_fract_x
 _atom_site_fract_y
 _atom_site_fract_z
 _atom_site_occupancy
  Sr  Sr0  4  0.15876300  0.16646600  0.30125900  1.0
  Tm  Tm1  2  0.00692500  0.00000000  0.00000000  0.75
  Ca  Ca2  2  0.00692500  0.00000000  0.00000000  0.25
  Ga  Ga3  2  0.30034400  0.81788100  0.50000000  1.0
  Cu  Cu4  4  0.07758700  0.57124600  0.14096500  1.0
  O  O5  4  0.16330000  0.63128700  0.35217200  1.0
  O  O6  4  0.19363800  0.18668200  0.87478100  1.0
  O  O7  4  0.19880000  0.68904800  0.88052600  1.0
  O  O8  2  0.15425900  0.13457500  0.50000000  1.0
