# generated using pymatgen
data_Ca0.4Y3.6Ti4O12
_symmetry_space_group_name_H-M   Pnma
_cell_length_a   5.34770600
_cell_length_b   5.71762200
_cell_length_c   7.70200900
_cell_angle_alpha   90.00000000
_cell_angle_beta   90.00000000
_cell_angle_gamma   90.00000000
_symmetry_Int_Tables_number   62
_chemical_formula_structural   Ca0.4Y3.6Ti4O12
_chemical_formula_sum   'Ca0.4 Y3.6 Ti4 O12'
_cell_volume   235.49787087
_cell_formula_units_Z   1
loop_
 _symmetry_equiv_pos_site_id
 _symmetry_equiv_pos_as_xyz
  1  'x, y, z'
  2  '-x, -y, -z'
  3  'x+1/2, -y+1/2, -z'
  4  '-x+1/2, y+1/2, z'
  5  '-x+1/2, y+1/2, -z+1/2'
  6  'x+1/2, -y+1/2, z+1/2'
  7  '-x, -y, z+1/2'
  8  'x, y, -z+1/2'
loop_
 _atom_site_type_symbol
 _atom_site_label
 _atom_site_symmetry_multiplicity
 _atom_site_fract_x
 _atom_site_fract_y
 _atom_site_fract_z
 _atom_site_occupancy
  Y  Y0  4  0.02217800  0.92848400  0.75000000  0.9
  Ca  Ca1  4  0.02217800  0.92848400  0.75000000  0.1
  Ti  Ti2  4  0.00000000  0.50000000  0.00000000  1.0
  O  O3  8  0.19048900  0.19814800  0.55776900  1.0
  O  O4  4  0.12051400  0.45465400  0.25000000  1.0
