# generated using pymatgen
data_Sr2.8Ca1.2Ti4O12
_symmetry_space_group_name_H-M   Cmcm
_cell_length_a   5.54473021
_cell_length_b   5.54473021
_cell_length_c   7.78643400
_cell_angle_alpha   90.00000000
_cell_angle_beta   90.00000000
_cell_angle_gamma   90.72437174
_symmetry_Int_Tables_number   63
_chemical_formula_structural   Sr2.8Ca1.2Ti4O12
_chemical_formula_sum   'Sr2.8 Ca1.2 Ti4 O12'
_cell_volume   239.36725348
_cell_formula_units_Z   1
loop_
 _symmetry_equiv_pos_site_id
 _symmetry_equiv_pos_as_xyz
  1  'x, y, z'
  2  '-x, -y, -z'
  3  '-x, -y, z+1/2'
  4  'x, y, -z+1/2'
  5  'y, x, -z'
  6  '-y, -x, z'
  7  '-y, -x, -z+1/2'
  8  'y, x, z+1/2'
loop_
 _atom_site_type_symbol
 _atom_site_label
 _atom_site_symmetry_multiplicity
 _atom_site_fract_x
 _atom_site_fract_y
 _atom_site_fract_z
 _atom_site_occupancy
  Sr  Sr0  2  0.00171100  0.99828900  0.25000000  1.0
  Ca  Ca1  2  0.49842800  0.50157200  0.75000000  0.6
  Sr  Sr2  2  0.49842800  0.50157200  0.75000000  0.4
  Ti  Ti3  4  0.00000000  0.50000000  0.00000000  1.0
  O  O4  4  0.04689800  0.53638000  0.75000000  1.0
  O  O5  4  0.24987200  0.24987200  0.00000000  1.0
  O  O6  4  0.25526900  0.74473100  0.04166700  1.0
