# generated using pymatgen
data_Sr4CaYGa2(Cu2O7)2
_symmetry_space_group_name_H-M   C2
_cell_length_a   5.39541000
_cell_length_b   5.50183153
_cell_length_c   12.23851722
_cell_angle_alpha   102.93181649
_cell_angle_beta   102.73413974
_cell_angle_gamma   90.00000000
_symmetry_Int_Tables_number   5
_chemical_formula_structural   Sr4CaYGa2(Cu2O7)2
_chemical_formula_sum   'Sr4 Ca1 Y1 Ga2 Cu4 O14'
_cell_volume   344.90719673
_cell_formula_units_Z   1
loop_
 _symmetry_equiv_pos_site_id
 _symmetry_equiv_pos_as_xyz
  1  'x, y, z'
  2  'x-z, -y, -z'
loop_
 _atom_site_type_symbol
 _atom_site_label
 _atom_site_symmetry_multiplicity
 _atom_site_fract_x
 _atom_site_fract_y
 _atom_site_fract_z
 _atom_site_occupancy
  Sr  Sr0  2  0.14825600  0.13592400  0.30064200  1.0
  Sr  Sr1  2  0.34632200  0.33431800  0.69733600  1.0
  Ca  Ca2  1  0.00002100  0.00000000  0.00000000  1.0
  Y  Y3  1  0.49996400  0.50000000  0.00000000  1.0
  Ga  Ga4  2  0.20440600  0.68160100  0.50004800  1.0
  Cu  Cu5  2  0.07343700  0.57264100  0.14670100  1.0
  Cu  Cu6  2  0.42686500  0.92638600  0.85347700  1.0
  O  O7  2  0.18810500  0.67773200  0.86619600  1.0
  O  O8  2  0.19089200  0.19130800  0.87428200  1.0
  O  O9  2  0.19216200  0.72033300  0.35244300  1.0
  O  O10  2  0.34035200  0.86667500  0.64752800  1.0
  O  O11  2  0.35125300  0.36505700  0.49908900  1.0
  O  O12  2  0.67785800  0.67736800  0.86617500  1.0
  O  O13  2  0.68214900  0.19272800  0.87418500  1.0
