# generated using pymatgen
data_Ca3.2La4.8Mn8O24
_symmetry_space_group_name_H-M   R-3c
_cell_length_a   7.83737288
_cell_length_b   7.83737288
_cell_length_c   7.83737279
_cell_angle_alpha   90.72039373
_cell_angle_beta   90.72039373
_cell_angle_gamma   90.72038665
_symmetry_Int_Tables_number   167
_chemical_formula_structural   Ca3.2La4.8Mn8O24
_chemical_formula_sum   'Ca3.2 La4.8 Mn8 O24'
_cell_volume   481.29090884
_cell_formula_units_Z   1
loop_
 _symmetry_equiv_pos_site_id
 _symmetry_equiv_pos_as_xyz
  1  'x, y, z'
  2  '-x, -y, -z'
  3  'z, x, y'
  4  '-z, -x, -y'
  5  'y, z, x'
  6  '-y, -z, -x'
  7  '-z+1/2, -y+1/2, -x+1/2'
  8  'z+1/2, y+1/2, x+1/2'
  9  '-y+1/2, -x+1/2, -z+1/2'
  10  'y+1/2, x+1/2, z+1/2'
  11  '-x+1/2, -z+1/2, -y+1/2'
  12  'x+1/2, z+1/2, y+1/2'
loop_
 _atom_site_type_symbol
 _atom_site_label
 _atom_site_symmetry_multiplicity
 _atom_site_fract_x
 _atom_site_fract_y
 _atom_site_fract_z
 _atom_site_occupancy
  Ca  Ca0  2  0.25000000  0.25000000  0.25000000  1.0
  La  La1  6  0.24958400  0.75000000  0.25041600  0.8
  Ca  Ca2  6  0.24958400  0.75000000  0.25041600
  0.19999999999999998
  Mn  Mn3  6  0.00000000  0.00000000  0.50000000  1.0
  Mn  Mn4  2  0.00000000  0.00000000  0.00000000  1.0
  O  O5  12  0.02979200  0.96493900  0.25034000  1.0
  O  O6  6  0.03337000  0.25000000  0.46663000  1.0
  O  O7  6  0.03381700  0.46618300  0.75000000  1.0
