# generated using pymatgen
data_Sr4Ca0.2Y1.8Ga2Cu4O14
_symmetry_space_group_name_H-M   Ima2
_cell_length_a   5.42112200
_cell_length_b   5.52988200
_cell_length_c   12.24141736
_cell_angle_alpha   103.05390831
_cell_angle_beta   102.79276866
_cell_angle_gamma   90.00000001
_symmetry_Int_Tables_number   46
_chemical_formula_structural   Sr4Ca0.2Y1.8Ga2Cu4O14
_chemical_formula_sum   'Sr4 Ca0.2 Y1.8 Ga2 Cu4 O14'
_cell_volume   348.13448120
_cell_formula_units_Z   1
loop_
 _symmetry_equiv_pos_site_id
 _symmetry_equiv_pos_as_xyz
  1  'x, y, z'
  2  'x-z, -y, -z'
  3  'x-z+1/2, y-z+1/2, -z'
  4  'x+1/2, -y+z+1/2, z'
loop_
 _atom_site_type_symbol
 _atom_site_label
 _atom_site_symmetry_multiplicity
 _atom_site_fract_x
 _atom_site_fract_y
 _atom_site_fract_z
 _atom_site_occupancy
  Sr  Sr0  4  0.14778200  0.13313600  0.30259800  1.0
  Y  Y1  2  0.49996800  0.50000000  0.00000000  0.9
  Ca  Ca2  2  0.49996800  0.50000000  0.00000000  0.1
  Ga  Ga3  2  0.21038100  0.68044900  0.50000000  1.0
  Cu  Cu4  4  0.07109400  0.57023900  0.14228200  1.0
  O  O5  4  0.18607000  0.68527400  0.87221200  1.0
  O  O6  4  0.18712600  0.18724200  0.87715100  1.0
  O  O7  4  0.20269700  0.72147200  0.35384500  1.0
  O  O8  2  0.35740200  0.36566900  0.50000000  1.0
