# generated using pymatgen
data_Ca0.42La1.58Mn2O6
_symmetry_space_group_name_H-M   Pbam
_cell_length_a   3.94124050
_cell_length_b   5.55081100
_cell_length_c   5.71415600
_cell_angle_alpha   89.99716470
_cell_angle_beta   89.99997543
_cell_angle_gamma   89.99990478
_symmetry_Int_Tables_number   55
_chemical_formula_structural   Ca0.42La1.58Mn2O6
_chemical_formula_sum   'Ca0.42 La1.58 Mn2 O6'
_cell_volume   125.00905420
_cell_formula_units_Z   1
loop_
 _symmetry_equiv_pos_site_id
 _symmetry_equiv_pos_as_xyz
  1  'x, y, z'
  2  '-x, -y, -z'
  3  'x, -y, -z'
  4  '-x, y, z'
  5  '-x, y+1/2, -z+1/2'
  6  'x, -y+1/2, z+1/2'
  7  '-x, -y+1/2, z+1/2'
  8  'x, y+1/2, -z+1/2'
loop_
 _atom_site_type_symbol
 _atom_site_label
 _atom_site_symmetry_multiplicity
 _atom_site_fract_x
 _atom_site_fract_y
 _atom_site_fract_z
 _atom_site_occupancy
  La  La0  2  0.49999900  0.00000150  0.49999750  0.79
  Ca  Ca1  2  0.49999900  0.00000150  0.49999750  0.21
  Mn  Mn2  2  0.00000300  0.49999600  0.50000200  1.0
  O  O3  4  0.00000100  0.20461650  0.32040750  1.0
  O  O4  2  0.49999800  0.00000100  0.00000050  1.0
