# generated using pymatgen
data_Sr4Ca1.4Y0.6Tl1Cu4Pb1O14
_symmetry_space_group_name_H-M   I4/mmm
_cell_length_a   5.37473200
_cell_length_b   5.37473200
_cell_length_c   12.82905816
_cell_angle_alpha   102.09158331
_cell_angle_beta   102.09158331
_cell_angle_gamma   89.99999999
_symmetry_Int_Tables_number   139
_chemical_formula_structural   Sr4Ca1.4Y0.6Tl1Cu4Pb1O14
_chemical_formula_sum   'Sr4 Ca1.4 Y0.6 Tl1 Cu4 Pb1 O14'
_cell_volume   353.96724790
_cell_formula_units_Z   1
loop_
 _symmetry_equiv_pos_site_id
 _symmetry_equiv_pos_as_xyz
  1  'x, y, z'
  2  '-x, -y, -z'
  3  '-y+z, x, z'
  4  'y-z, -x, -z'
  5  '-x+z, -y+z, z'
  6  'x-z, y-z, -z'
  7  'y, -x+z, z'
  8  '-y, x-z, -z'
  9  'x-z, -y, -z'
  10  '-x+z, y, z'
  11  '-y, -x, -z'
  12  'y, x, z'
  13  '-x, y-z, -z'
  14  'x, -y+z, z'
  15  'y-z, x-z, -z'
  16  '-y+z, -x+z, z'
loop_
 _atom_site_type_symbol
 _atom_site_label
 _atom_site_symmetry_multiplicity
 _atom_site_fract_x
 _atom_site_fract_y
 _atom_site_fract_z
 _atom_site_occupancy
  Sr  Sr0  4  0.10759100  0.60759100  0.21518200  1.0
  Ca  Ca1  2  0.25000000  0.75000000  0.50000000  0.7
  Y  Y2  2  0.25000000  0.75000000  0.50000000  0.3
  Tl  Tl3  1  0.50000000  0.50000000  0.00000000  1.0
  Cu  Cu4  2  0.17773800  0.17773800  0.35547600  1.0
  Cu  Cu5  2  0.32043500  0.32043500  0.64087000  1.0
  Pb  Pb6  1  0.00000000  0.00000000  0.00000000  1.0
  O  O7  8  0.06530200  0.06530200  0.62996400  1.0
  O  O8  2  0.00000000  0.50000000  0.00000000  1.0
  O  O9  2  0.08712000  0.08712000  0.17424000  1.0
  O  O10  2  0.41506000  0.41506000  0.83012000  1.0
