# generated using pymatgen
data_Ca0.42La1.58Mn2O6
_symmetry_space_group_name_H-M   Pmc2_1
_cell_length_a   3.96667200
_cell_length_b   5.53612002
_cell_length_c   5.69911702
_cell_angle_alpha   89.99010164
_cell_angle_beta   90.00080843
_cell_angle_gamma   89.99998969
_symmetry_Int_Tables_number   26
_chemical_formula_structural   Ca0.42La1.58Mn2O6
_chemical_formula_sum   'Ca0.42 La1.58 Mn2 O6'
_cell_volume   125.15244985
_cell_formula_units_Z   1
loop_
 _symmetry_equiv_pos_site_id
 _symmetry_equiv_pos_as_xyz
  1  'x, y, z'
  2  '-x, -y+1/2, z+1/2'
  3  '-x, y, z'
  4  'x, -y+1/2, z+1/2'
loop_
 _atom_site_type_symbol
 _atom_site_label
 _atom_site_symmetry_multiplicity
 _atom_site_fract_x
 _atom_site_fract_y
 _atom_site_fract_z
 _atom_site_occupancy
  La  La0  2  0.49998900  0.01342900  0.48769950  0.79
  Ca  Ca1  2  0.49998900  0.01342900  0.48769950  0.21
  Mn  Mn2  2  0.00000100  0.50519300  0.49864750  1.0
  O  O3  2  0.00001150  0.69428400  0.83162200  1.0
  O  O4  2  0.00001250  0.21162600  0.68575300  1.0
  O  O5  2  0.49999950  0.00311100  0.99631550  1.0
