# generated using pymatgen
data_Ca0.42La1.58Mn2O6
_symmetry_space_group_name_H-M   C2/c
_cell_length_a   5.53913627
_cell_length_b   5.57993921
_cell_length_c   5.57993891
_cell_angle_alpha   61.58923991
_cell_angle_beta   60.88237855
_cell_angle_gamma   60.88237097
_symmetry_Int_Tables_number   15
_chemical_formula_structural   Ca0.42La1.58Mn2O6
_chemical_formula_sum   'Ca0.42 La1.58 Mn2 O6'
_cell_volume   125.00744319
_cell_formula_units_Z   1
loop_
 _symmetry_equiv_pos_site_id
 _symmetry_equiv_pos_as_xyz
  1  'x, y, z'
  2  '-x, -y, -z'
  3  '-x+1/2, -z+1/2, -y+1/2'
  4  'x+1/2, z+1/2, y+1/2'
loop_
 _atom_site_type_symbol
 _atom_site_label
 _atom_site_symmetry_multiplicity
 _atom_site_fract_x
 _atom_site_fract_y
 _atom_site_fract_z
 _atom_site_occupancy
  La  La0  2  0.25000000  0.24337000  0.25663000  0.79
  Ca  Ca1  2  0.25000000  0.24337000  0.25663000  0.21
  Mn  Mn2  2  0.00000000  0.00000000  0.00000000  1.0
  O  O3  4  0.17987100  0.33312100  0.72839100  1.0
  O  O4  2  0.25000000  0.81887600  0.68112400  1.0
