# generated using pymatgen
data_Ca0.84La3.16Mn4O12
_symmetry_space_group_name_H-M   P2_1/c
_cell_length_a   5.67439300
_cell_length_b   6.04318975
_cell_length_c   10.29785700
_cell_angle_alpha   90.00000000
_cell_angle_beta   90.00000000
_cell_angle_gamma   109.29099747
_symmetry_Int_Tables_number   14
_chemical_formula_structural   Ca0.84La3.16Mn4O12
_chemical_formula_sum   'Ca0.84 La3.16 Mn4 O12'
_cell_volume   333.30114083
_cell_formula_units_Z   1
loop_
 _symmetry_equiv_pos_site_id
 _symmetry_equiv_pos_as_xyz
  1  'x, y, z'
  2  '-x, -y, -z'
  3  '-x, -y+1/2, z+1/2'
  4  'x, y+1/2, -z+1/2'
loop_
 _atom_site_type_symbol
 _atom_site_label
 _atom_site_symmetry_multiplicity
 _atom_site_fract_x
 _atom_site_fract_y
 _atom_site_fract_z
 _atom_site_occupancy
  La  La0  4  0.02842100  0.00189000  0.83226700  0.79
  Ca  Ca1  4  0.02842100  0.00189000  0.83226700  0.21
  Mn  Mn2  2  0.00000000  0.00000000  0.50000000  1.0
  Mn  Mn3  2  0.50000000  0.00000000  0.50000000  1.0
  O  O4  4  0.16749200  0.35223300  0.49431800  1.0
  O  O5  4  0.22531300  0.43447600  0.12649500  1.0
  O  O6  4  0.25889800  0.41998000  0.85855300  1.0
