# generated using pymatgen
data_Ca1.32La2.68Mn4O12
_symmetry_space_group_name_H-M   P2_1/m
_cell_length_a   5.55841014
_cell_length_b   5.56587131
_cell_length_c   7.59380900
_cell_angle_alpha   90.00045566
_cell_angle_beta   90.00047937
_cell_angle_gamma   87.17310444
_symmetry_Int_Tables_number   11
_chemical_formula_structural   Ca1.32La2.68Mn4O12
_chemical_formula_sum   'Ca1.32 La2.68 Mn4 O12'
_cell_volume   234.64678217
_cell_formula_units_Z   1
loop_
 _symmetry_equiv_pos_site_id
 _symmetry_equiv_pos_as_xyz
  1  'x, y, z'
  2  '-x, -y, -z'
  3  '-x, -y, z+1/2'
  4  'x, y, -z+1/2'
loop_
 _atom_site_type_symbol
 _atom_site_label
 _atom_site_symmetry_multiplicity
 _atom_site_fract_x
 _atom_site_fract_y
 _atom_site_fract_z
 _atom_site_occupancy
  Ca  Ca0  2  0.01203200  0.53759900  0.25002800  0.6599999999999999
  La  La1  2  0.01203200  0.53759900  0.25002800  0.34
  La  La2  2  0.49819000  0.03088700  0.25001500  1.0
  Mn  Mn3  2  0.00002300  0.99995300  0.50004600  1.0
  Mn  Mn4  2  0.49995400  0.49996000  0.99996200  1.0
  O  O5  4  0.23531100  0.28993700  0.04326700  1.0
  O  O6  4  0.28864100  0.78497600  0.03523400  1.0
  O  O7  2  0.06398900  0.02288400  0.75000800  1.0
  O  O8  2  0.41170100  0.50862700  0.74998700  1.0
