# generated using pymatgen
data_Sr4Ca0.72Y1.28Cu6Pb4O16
_symmetry_space_group_name_H-M   I4/mmm
_cell_length_a   5.40624000
_cell_length_b   5.40624000
_cell_length_c   16.47759997
_cell_angle_alpha   99.44194477
_cell_angle_beta   99.44194476
_cell_angle_gamma   90.00000004
_symmetry_Int_Tables_number   139
_chemical_formula_structural   Sr4Ca0.72Y1.28Cu6Pb4O16
_chemical_formula_sum   'Sr4 Ca0.72 Y1.28 Cu6 Pb4 O16'
_cell_volume   468.45799368
_cell_formula_units_Z   1
loop_
 _symmetry_equiv_pos_site_id
 _symmetry_equiv_pos_as_xyz
  1  'x, y, z'
  2  '-x, -y, -z'
  3  '-y+z, x, z'
  4  'y-z, -x, -z'
  5  '-x+z, -y+z, z'
  6  'x-z, y-z, -z'
  7  'y, -x+z, z'
  8  '-y, x-z, -z'
  9  'x-z, -y, -z'
  10  '-x+z, y, z'
  11  '-y, -x, -z'
  12  'y, x, z'
  13  '-x, y-z, -z'
  14  'x, -y+z, z'
  15  'y-z, x-z, -z'
  16  '-y+z, -x+z, z'
loop_
 _atom_site_type_symbol
 _atom_site_label
 _atom_site_symmetry_multiplicity
 _atom_site_fract_x
 _atom_site_fract_y
 _atom_site_fract_z
 _atom_site_occupancy
  Sr  Sr0  2  0.10900100  0.10900100  0.21800200  1.0
  Sr  Sr1  2  0.39023600  0.39023600  0.78047200  1.0
  Ca  Ca2  1  0.00000000  0.00000000  0.00000000  0.72
  Y  Y3  1  0.00000000  0.00000000  0.00000000  0.28
  Y  Y4  1  0.50000000  0.50000000  0.00000000  1.0
  Cu  Cu5  4  0.05322300  0.55322300  0.10644600  1.0
  Cu  Cu6  2  0.24990700  0.24990700  0.49981400  1.0
  Pb  Pb7  4  0.19371200  0.69371200  0.38742400  1.0
  O  O8  8  0.20739400  0.20739400  0.90483300  1.0
  O  O9  4  0.12581600  0.62581600  0.25163200  1.0
  O  O10  2  0.19190900  0.19190900  0.38381800  1.0
  O  O11  2  0.30789700  0.30789700  0.61579400  1.0
