# generated using pymatgen
data_Ca1.98La4.02Mn6O18
_symmetry_space_group_name_H-M   P-3c1
_cell_length_a   5.56211000
_cell_length_b   5.56211038
_cell_length_c   13.37979200
_cell_angle_alpha   90.00000000
_cell_angle_beta   90.00000000
_cell_angle_gamma   119.99999772
_symmetry_Int_Tables_number   165
_chemical_formula_structural   Ca1.98La4.02Mn6O18
_chemical_formula_sum   'Ca1.98 La4.02 Mn6 O18'
_cell_volume   358.47525337
_cell_formula_units_Z   1
loop_
 _symmetry_equiv_pos_site_id
 _symmetry_equiv_pos_as_xyz
  1  'x, y, z'
  2  '-x, -y, -z'
  3  '-y, x-y, z'
  4  'y, -x+y, -z'
  5  '-x+y, -x, z'
  6  'x-y, x, -z'
  7  'y, x, -z+1/2'
  8  '-y, -x, z+1/2'
  9  'x-y, -y, -z+1/2'
  10  '-x+y, y, z+1/2'
  11  '-x, -x+y, -z+1/2'
  12  'x, x-y, z+1/2'
loop_
 _atom_site_type_symbol
 _atom_site_label
 _atom_site_symmetry_multiplicity
 _atom_site_fract_x
 _atom_site_fract_y
 _atom_site_fract_z
 _atom_site_occupancy
  Ca  Ca0  2  0.00000000  0.00000000  0.25000000  0.99
  La  La1  2  0.00000000  0.00000000  0.25000000  0.01
  La  La2  4  0.33333333  0.66666667  0.08564900  1.0
  Mn  Mn3  4  0.33333333  0.66666667  0.33205600  1.0
  Mn  Mn4  2  0.00000000  0.00000000  0.00000000  1.0
  O  O5  12  0.10541300  0.33619200  0.41848800  1.0
  O  O6  6  0.00000000  0.43156900  0.75000000  1.0
