# generated using pymatgen
data_Na0.19Ca1.81Cu1Cl2O2
_symmetry_space_group_name_H-M   I4/mmm
_cell_length_a   3.88024600
_cell_length_b   3.88024600
_cell_length_c   8.12907187
_cell_angle_alpha   103.80774691
_cell_angle_beta   103.80774691
_cell_angle_gamma   90.00000001
_symmetry_Int_Tables_number   139
_chemical_formula_structural   Na0.19Ca1.81Cu1Cl2O2
_chemical_formula_sum   'Na0.19 Ca1.81 Cu1 Cl2 O2'
_cell_volume   115.21141867
_cell_formula_units_Z   1
loop_
 _symmetry_equiv_pos_site_id
 _symmetry_equiv_pos_as_xyz
  1  'x, y, z'
  2  '-x, -y, -z'
  3  '-y+z, x, z'
  4  'y-z, -x, -z'
  5  '-x+z, -y+z, z'
  6  'x-z, y-z, -z'
  7  'y, -x+z, z'
  8  '-y, x-z, -z'
  9  'x-z, -y, -z'
  10  '-x+z, y, z'
  11  '-y, -x, -z'
  12  'y, x, z'
  13  '-x, y-z, -z'
  14  'x, -y+z, z'
  15  'y-z, x-z, -z'
  16  '-y+z, -x+z, z'
loop_
 _atom_site_type_symbol
 _atom_site_label
 _atom_site_symmetry_multiplicity
 _atom_site_fract_x
 _atom_site_fract_y
 _atom_site_fract_z
 _atom_site_occupancy
  Ca  Ca0  2  0.39635300  0.39635300  0.79270600  0.905
  Na  Na1  2  0.39635300  0.39635300  0.79270600  0.095
  Cu  Cu2  1  0.00000000  0.00000000  0.00000000  1.0
  Cl  Cl3  2  0.18237700  0.18237700  0.36475400  1.0
  O  O4  2  0.00000000  0.50000000  0.00000000  1.0
