# generated using pymatgen
data_CaCu5
_symmetry_space_group_name_H-M   P6/mmm
_cell_length_a   4.02615700
_cell_length_b   5.10565800
_cell_length_c   5.10565754
_cell_angle_alpha   120.00000298
_cell_angle_beta   90.00000000
_cell_angle_gamma   90.00000000
_symmetry_Int_Tables_number   191
_chemical_formula_structural   CaCu5
_chemical_formula_sum   'Ca1 Cu5'
_cell_volume   90.89180469
_cell_formula_units_Z   1
loop_
 _symmetry_equiv_pos_site_id
 _symmetry_equiv_pos_as_xyz
  1  'x, y, z'
  2  '-x, -y, -z'
  3  'x, z, -y+z'
  4  '-x, -z, y-z'
  5  'x, -y+z, -y'
  6  '-x, y-z, y'
  7  'x, -y, -z'
  8  '-x, y, z'
  9  'x, -z, y-z'
  10  '-x, z, -y+z'
  11  'x, y-z, y'
  12  '-x, -y+z, -y'
  13  '-x, -y+z, z'
  14  'x, y-z, -z'
  15  '-x, -y, -y+z'
  16  'x, y, y-z'
  17  '-x, -z, -y'
  18  'x, z, y'
  19  '-x, y-z, -z'
  20  'x, -y+z, z'
  21  '-x, y, y-z'
  22  'x, -y, -y+z'
  23  '-x, z, y'
  24  'x, -z, -y'
loop_
 _atom_site_type_symbol
 _atom_site_label
 _atom_site_symmetry_multiplicity
 _atom_site_fract_x
 _atom_site_fract_y
 _atom_site_fract_z
 _atom_site_occupancy
  Ca  Ca0  1  0.00000000  0.00000000  0.00000000  1.0
  Cu  Cu1  3  0.50000000  0.00000000  0.50000000  1.0
  Cu  Cu2  2  0.00000000  0.33333333  0.66666667  1.0
