# generated using pymatgen
data_CaCuO2
_symmetry_space_group_name_H-M   P2_12_12
_cell_length_a   3.20286300
_cell_length_b   5.46027100
_cell_length_c   11.13506600
_cell_angle_alpha   90.00000000
_cell_angle_beta   90.00000000
_cell_angle_gamma   90.00000000
_symmetry_Int_Tables_number   18
_chemical_formula_structural   CaCuO2
_chemical_formula_sum   'Ca4 Cu4 O8'
_cell_volume   194.73560125
_cell_formula_units_Z   4
loop_
 _symmetry_equiv_pos_site_id
 _symmetry_equiv_pos_as_xyz
  1  'x, y, z'
  2  'x, -y, -z'
  3  '-x, y+1/2, -z+1/2'
  4  '-x, -y+1/2, z+1/2'
loop_
 _atom_site_type_symbol
 _atom_site_label
 _atom_site_symmetry_multiplicity
 _atom_site_fract_x
 _atom_site_fract_y
 _atom_site_fract_z
 _atom_site_occupancy
  Ca  Ca0  4  0.49537200  0.47555700  0.63729400  1.0
  Cu  Cu1  4  0.00707200  0.48498700  0.87811700  1.0
  O  O2  4  0.00098500  0.27329900  0.25430900  1.0
  O  O3  4  0.01554900  0.24350600  0.00610300  1.0
