# generated using pymatgen
data_CaCuO2
_symmetry_space_group_name_H-M   P-1
_cell_length_a   3.03838700
_cell_length_b   8.24787111
_cell_length_c   8.60252487
_cell_angle_alpha   85.21126787
_cell_angle_beta   89.47103458
_cell_angle_gamma   80.31282397
_symmetry_Int_Tables_number   2
_chemical_formula_structural   CaCuO2
_chemical_formula_sum   'Ca4 Cu4 O8'
_cell_volume   211.76292014
_cell_formula_units_Z   4
loop_
 _symmetry_equiv_pos_site_id
 _symmetry_equiv_pos_as_xyz
  1  'x, y, z'
  2  '-x, -y, -z'
loop_
 _atom_site_type_symbol
 _atom_site_label
 _atom_site_symmetry_multiplicity
 _atom_site_fract_x
 _atom_site_fract_y
 _atom_site_fract_z
 _atom_site_occupancy
  Ca  Ca0  2  0.21312800  0.08085200  0.82112600  1.0
  Ca  Ca1  2  0.33765600  0.81185900  0.54572000  1.0
  Cu  Cu2  2  0.11351800  0.27213700  0.10519800  1.0
  Cu  Cu3  2  0.44434500  0.55150600  0.31221100  1.0
  O  O4  2  0.01666700  0.40608100  0.26909100  1.0
  O  O5  2  0.11738300  0.30960200  0.63574900  1.0
  O  O6  2  0.23568700  0.02659300  0.34081000  1.0
  O  O7  2  0.33901500  0.82382800  0.99806000  1.0
