# generated using pymatgen
data_CaCuO2
_symmetry_space_group_name_H-M   P-1
_cell_length_a   3.60067700
_cell_length_b   7.78358570
_cell_length_c   8.21691900
_cell_angle_alpha   105.44726433
_cell_angle_beta   98.23096089
_cell_angle_gamma   94.78304211
_symmetry_Int_Tables_number   2
_chemical_formula_structural   CaCuO2
_chemical_formula_sum   'Ca4 Cu4 O8'
_cell_volume   217.89380325
_cell_formula_units_Z   4
loop_
 _symmetry_equiv_pos_site_id
 _symmetry_equiv_pos_as_xyz
  1  'x, y, z'
  2  '-x, -y, -z'
loop_
 _atom_site_type_symbol
 _atom_site_label
 _atom_site_symmetry_multiplicity
 _atom_site_fract_x
 _atom_site_fract_y
 _atom_site_fract_z
 _atom_site_occupancy
  Ca  Ca0  2  0.25745500  0.28878400  0.98893100  1.0
  Ca  Ca1  2  0.40630300  0.65713100  0.34306000  1.0
  Cu  Cu2  2  0.14318400  0.69145200  0.70436000  1.0
  Cu  Cu3  2  0.17476000  0.01663700  0.35053100  1.0
  O  O4  2  0.00888300  0.16505000  0.54063900  1.0
  O  O5  2  0.19938600  0.51137500  0.83175000  1.0
  O  O6  2  0.31275200  0.84717900  0.17180700  1.0
  O  O7  2  0.34388700  0.23682400  0.30716300  1.0
