# generated using pymatgen
data_CaGe3
_symmetry_space_group_name_H-M   I4/mmm
_cell_length_a   7.72293600
_cell_length_b   7.91900345
_cell_length_c   7.72293600
_cell_angle_alpha   119.18430008
_cell_angle_beta   90.00000000
_cell_angle_gamma   119.18430008
_symmetry_Int_Tables_number   139
_chemical_formula_structural   CaGe3
_chemical_formula_sum   'Ca4 Ge12'
_cell_volume   342.04915757
_cell_formula_units_Z   4
loop_
 _symmetry_equiv_pos_site_id
 _symmetry_equiv_pos_as_xyz
  1  'x, y, z'
  2  '-x, -y, -z'
  3  'y-z, y, x'
  4  '-y+z, -y, -x'
  5  '-x+y, y, y-z'
  6  'x-y, -y, -y+z'
  7  'z, y, -x+y'
  8  '-z, -y, x-y'
  9  'x-y, -y, -z'
  10  '-x+y, y, z'
  11  '-z, -y, -x'
  12  'z, y, x'
  13  '-x, -y, -y+z'
  14  'x, y, y-z'
  15  '-y+z, -y, x-y'
  16  'y-z, y, -x+y'
loop_
 _atom_site_type_symbol
 _atom_site_label
 _atom_site_symmetry_multiplicity
 _atom_site_fract_x
 _atom_site_fract_y
 _atom_site_fract_z
 _atom_site_occupancy
  Ca  Ca0  2  0.16617600  0.33235200  0.16617600  1.0
  Ca  Ca1  2  0.25000000  0.50000000  0.75000000  1.0
  Ge  Ge2  8  0.20043300  0.76631200  0.20043300  1.0
  Ge  Ge3  4  0.00000000  0.00000000  0.33095700  1.0
