# generated using pymatgen
data_CaHg3
_symmetry_space_group_name_H-M   Cmcm
_cell_length_a   5.21593000
_cell_length_b   6.53802400
_cell_length_c   6.83650538
_cell_angle_alpha   61.43404797
_cell_angle_beta   90.00000000
_cell_angle_gamma   90.00000000
_symmetry_Int_Tables_number   63
_chemical_formula_structural   CaHg3
_chemical_formula_sum   'Ca2 Hg6'
_cell_volume   204.75717515
_cell_formula_units_Z   2
loop_
 _symmetry_equiv_pos_site_id
 _symmetry_equiv_pos_as_xyz
  1  'x, y, z'
  2  '-x, -y, -z'
  3  'x+1/2, -y, -z'
  4  '-x+1/2, y, z'
  5  '-x, y+z, -z'
  6  'x, -y-z, z'
  7  '-x+1/2, -y-z, z'
  8  'x+1/2, y+z, -z'
loop_
 _atom_site_type_symbol
 _atom_site_label
 _atom_site_symmetry_multiplicity
 _atom_site_fract_x
 _atom_site_fract_y
 _atom_site_fract_z
 _atom_site_occupancy
  Ca  Ca0  2  0.25000000  0.33308900  0.33382200  1.0
  Hg  Hg1  4  0.25000000  0.32763600  0.83702200  1.0
  Hg  Hg2  2  0.25000000  0.83433200  0.33133600  1.0
