# generated using pymatgen
data_CaSi3Ir
_symmetry_space_group_name_H-M   I4mm
_cell_length_a   4.20653600
_cell_length_b   4.20653600
_cell_length_c   5.79916513
_cell_angle_alpha   111.26515954
_cell_angle_beta   111.26515953
_cell_angle_gamma   90.00000001
_symmetry_Int_Tables_number   107
_chemical_formula_structural   CaSi3Ir
_chemical_formula_sum   'Ca1 Si3 Ir1'
_cell_volume   88.08963053
_cell_formula_units_Z   1
loop_
 _symmetry_equiv_pos_site_id
 _symmetry_equiv_pos_as_xyz
  1  'x, y, z'
  2  '-y+z, x, z'
  3  '-x+z, -y+z, z'
  4  'y, -x+z, z'
  5  '-x+z, y, z'
  6  'y, x, z'
  7  'x, -y+z, z'
  8  '-y+z, -x+z, z'
loop_
 _atom_site_type_symbol
 _atom_site_label
 _atom_site_symmetry_multiplicity
 _atom_site_fract_x
 _atom_site_fract_y
 _atom_site_fract_z
 _atom_site_occupancy
  Ca  Ca0  1  0.99994700  0.99994700  0.99989400  1.0
  Si  Si1  2  0.25941300  0.75941300  0.51882600  1.0
  Si  Si2  1  0.40873200  0.40873200  0.81746400  1.0
  Ir  Ir3  1  0.64662600  0.64662600  0.29325200  1.0
