# generated using pymatgen
data_CaMg2
_symmetry_space_group_name_H-M   C2/m
_cell_length_a   3.48410600
_cell_length_b   6.79180319
_cell_length_c   7.69029051
_cell_angle_alpha   105.14235196
_cell_angle_beta   90.00000000
_cell_angle_gamma   104.86209684
_symmetry_Int_Tables_number   12
_chemical_formula_structural   CaMg2
_chemical_formula_sum   'Ca2 Mg4'
_cell_volume   169.34492301
_cell_formula_units_Z   2
loop_
 _symmetry_equiv_pos_site_id
 _symmetry_equiv_pos_as_xyz
  1  'x, y, z'
  2  '-x, -y, -z'
  3  'x-y, -y, -z'
  4  '-x+y, y, z'
loop_
 _atom_site_type_symbol
 _atom_site_label
 _atom_site_symmetry_multiplicity
 _atom_site_fract_x
 _atom_site_fract_y
 _atom_site_fract_z
 _atom_site_occupancy
  Ca  Ca0  2  0.47813100  0.95626200  0.22023900  1.0
  Mg  Mg1  2  0.15989500  0.31979000  0.53781500  1.0
  Mg  Mg2  2  0.19868400  0.39736800  0.13643800  1.0
