# generated using pymatgen
data_CaMg2
_symmetry_space_group_name_H-M   R-3m
_cell_length_a   6.13241612
_cell_length_b   6.13241612
_cell_length_c   6.32002643
_cell_angle_alpha   60.97721439
_cell_angle_beta   60.97721439
_cell_angle_gamma   59.99999871
_symmetry_Int_Tables_number   166
_chemical_formula_structural   CaMg2
_chemical_formula_sum   'Ca2 Mg4'
_cell_volume   170.50080004
_cell_formula_units_Z   2
loop_
 _symmetry_equiv_pos_site_id
 _symmetry_equiv_pos_as_xyz
  1  'x, y, z'
  2  '-x, -y, -z'
  3  '-x-y-z, x, z'
  4  'x+y+z, -x, -z'
  5  'y, -x-y-z, z'
  6  '-y, x+y+z, -z'
  7  '-x, x+y+z, -z'
  8  'x, -x-y-z, z'
  9  'x+y+z, -y, -z'
  10  '-x-y-z, y, z'
  11  '-y, -x, -z'
  12  'y, x, z'
loop_
 _atom_site_type_symbol
 _atom_site_label
 _atom_site_symmetry_multiplicity
 _atom_site_fract_x
 _atom_site_fract_y
 _atom_site_fract_z
 _atom_site_occupancy
  Ca  Ca0  2  0.12447200  0.12447200  0.62658400  1.0
  Mg  Mg1  3  0.00000000  0.50000000  0.00000000  1.0
  Mg  Mg2  1  0.50000000  0.50000000  0.50000000  1.0
