# generated using pymatgen
data_CaMg2
_symmetry_space_group_name_H-M   P-62m
_cell_length_a   5.53480200
_cell_length_b   6.00455400
_cell_length_c   6.00455374
_cell_angle_alpha   120.00000145
_cell_angle_beta   90.00000000
_cell_angle_gamma   90.00000000
_symmetry_Int_Tables_number   189
_chemical_formula_structural   CaMg2
_chemical_formula_sum   'Ca2 Mg4'
_cell_volume   172.82008145
_cell_formula_units_Z   2
loop_
 _symmetry_equiv_pos_site_id
 _symmetry_equiv_pos_as_xyz
  1  'x, y, z'
  2  '-x, -y+z, -y'
  3  'x, -z, y-z'
  4  '-x, y, z'
  5  'x, -y+z, -y'
  6  '-x, -z, y-z'
  7  'x, y-z, -z'
  8  '-x, z, y'
  9  'x, -y, -y+z'
  10  '-x, y-z, -z'
  11  'x, z, y'
  12  '-x, -y, -y+z'
loop_
 _atom_site_type_symbol
 _atom_site_label
 _atom_site_symmetry_multiplicity
 _atom_site_fract_x
 _atom_site_fract_y
 _atom_site_fract_z
 _atom_site_occupancy
  Ca  Ca0  2  0.50000000  0.33333333  0.66666667  1.0
  Mg  Mg1  3  0.00000000  0.00000000  0.69154000  1.0
  Mg  Mg2  1  0.50000000  0.00000000  0.00000000  1.0
