# generated using pymatgen
data_CaMg2
_symmetry_space_group_name_H-M   Cm
_cell_length_a   3.44962400
_cell_length_b   6.75898616
_cell_length_c   7.92893700
_cell_angle_alpha   101.77454839
_cell_angle_beta   90.00000000
_cell_angle_gamma   104.78472392
_symmetry_Int_Tables_number   8
_chemical_formula_structural   CaMg2
_chemical_formula_sum   'Ca2 Mg4'
_cell_volume   174.72373697
_cell_formula_units_Z   2
loop_
 _symmetry_equiv_pos_site_id
 _symmetry_equiv_pos_as_xyz
  1  'x, y, z'
  2  '-x+y, y, z'
loop_
 _atom_site_type_symbol
 _atom_site_label
 _atom_site_symmetry_multiplicity
 _atom_site_fract_x
 _atom_site_fract_y
 _atom_site_fract_z
 _atom_site_occupancy
  Ca  Ca0  1  0.06152700  0.12305400  0.62140000  1.0
  Ca  Ca1  1  0.38089700  0.76179400  0.26319500  1.0
  Mg  Mg2  1  0.00575500  0.01151000  0.00222900  1.0
  Mg  Mg3  1  0.33131700  0.66263400  0.67839200  1.0
  Mg  Mg4  1  0.66415800  0.32831600  0.32121900  1.0
  Mg  Mg5  1  0.72301200  0.44602400  0.94689800  1.0
