# generated using pymatgen
data_CaMg2
_symmetry_space_group_name_H-M   Cmcm
_cell_length_a   5.42343100
_cell_length_b   5.79177200
_cell_length_c   6.09817096
_cell_angle_alpha   61.64860618
_cell_angle_beta   90.00000000
_cell_angle_gamma   90.00000000
_symmetry_Int_Tables_number   63
_chemical_formula_structural   CaMg2
_chemical_formula_sum   'Ca2 Mg4'
_cell_volume   168.57508244
_cell_formula_units_Z   2
loop_
 _symmetry_equiv_pos_site_id
 _symmetry_equiv_pos_as_xyz
  1  'x, y, z'
  2  '-x, -y, -z'
  3  'x+1/2, -y, -z'
  4  '-x+1/2, y, z'
  5  '-x, -y-z, z'
  6  'x, y+z, -z'
  7  '-x+1/2, y+z, -z'
  8  'x+1/2, -y-z, z'
loop_
 _atom_site_type_symbol
 _atom_site_label
 _atom_site_symmetry_multiplicity
 _atom_site_fract_x
 _atom_site_fract_y
 _atom_site_fract_z
 _atom_site_occupancy
  Ca  Ca0  2  0.25000000  0.29627400  0.00000000  1.0
  Mg  Mg1  4  0.25000000  0.01884900  0.63097700  1.0
