# generated using pymatgen
data_CaMg2
_symmetry_space_group_name_H-M   Cmcm
_cell_length_a   3.44140000
_cell_length_b   5.61730100
_cell_length_c   9.12019240
_cell_angle_alpha   90.00000000
_cell_angle_beta   100.87513422
_cell_angle_gamma   90.00000000
_symmetry_Int_Tables_number   63
_chemical_formula_structural   CaMg2
_chemical_formula_sum   'Ca2 Mg4'
_cell_volume   173.13956876
_cell_formula_units_Z   2
loop_
 _symmetry_equiv_pos_site_id
 _symmetry_equiv_pos_as_xyz
  1  'x, y, z'
  2  '-x, -y, -z'
  3  '-x, y+1/2, -z'
  4  'x, -y+1/2, z'
  5  'x-z, -y, -z'
  6  '-x+z, y, z'
  7  '-x+z, -y+1/2, z'
  8  'x-z, y+1/2, -z'
loop_
 _atom_site_type_symbol
 _atom_site_label
 _atom_site_symmetry_multiplicity
 _atom_site_fract_x
 _atom_site_fract_y
 _atom_site_fract_z
 _atom_site_occupancy
  Ca  Ca0  2  0.28647400  0.25000000  0.57294800  1.0
  Mg  Mg1  2  0.04668900  0.75000000  0.09337800  1.0
  Mg  Mg2  2  0.39506600  0.75000000  0.79013200  1.0
