# generated using pymatgen
data_Ca1Tl1.8Pb1.2
_symmetry_space_group_name_H-M   Immm
_cell_length_a   12.46634200
_cell_length_b   13.05266739
_cell_length_c   13.05266739
_cell_angle_alpha   62.29478309
_cell_angle_beta   61.47514051
_cell_angle_gamma   61.47514051
_symmetry_Int_Tables_number   71
_chemical_formula_structural   Ca1Tl1.8Pb1.2
_chemical_formula_sum   'Ca1 Tl1.8 Pb1.2'
_cell_volume   1560.47083288
_cell_formula_units_Z   1
loop_
 _symmetry_equiv_pos_site_id
 _symmetry_equiv_pos_as_xyz
  1  'x, y, z'
  2  '-x, -y, -z'
  3  '-x-y-z, z, y'
  4  'x+y+z, -z, -y'
  5  'x+y+z, -y, -z'
  6  '-x-y-z, y, z'
  7  '-x, -z, -y'
  8  'x, z, y'
loop_
 _atom_site_type_symbol
 _atom_site_label
 _atom_site_symmetry_multiplicity
 _atom_site_fract_x
 _atom_site_fract_y
 _atom_site_fract_z
 _atom_site_occupancy
  Ca  Ca0  1  0.00000000  0.00000000  0.00000000  1.0
  Tl  Tl1  2  0.26609700  0.00000000  0.00000000  0.9
  Pb  Pb2  2  0.26609700  0.00000000  0.00000000  0.1
  Pb  Pb3  1  0.50000000  0.00000000  0.00000000  1.0
