# generated using pymatgen
data_CaSi3Pt
_symmetry_space_group_name_H-M   I4mm
_cell_length_a   4.23877800
_cell_length_b   4.23877800
_cell_length_c   5.82355375
_cell_angle_alpha   111.34199173
_cell_angle_beta   111.34199172
_cell_angle_gamma   90.00000001
_symmetry_Int_Tables_number   107
_chemical_formula_structural   CaSi3Pt
_chemical_formula_sum   'Ca1 Si3 Pt1'
_cell_volume   89.71062159
_cell_formula_units_Z   1
loop_
 _symmetry_equiv_pos_site_id
 _symmetry_equiv_pos_as_xyz
  1  'x, y, z'
  2  '-y+z, x, z'
  3  '-x+z, -y+z, z'
  4  'y, -x+z, z'
  5  '-x+z, y, z'
  6  'y, x, z'
  7  'x, -y+z, z'
  8  '-y+z, -x+z, z'
loop_
 _atom_site_type_symbol
 _atom_site_label
 _atom_site_symmetry_multiplicity
 _atom_site_fract_x
 _atom_site_fract_y
 _atom_site_fract_z
 _atom_site_occupancy
  Ca  Ca0  1  0.00115800  0.00115800  0.00231600  1.0
  Si  Si1  2  0.26173100  0.76173100  0.52346200  1.0
  Si  Si2  1  0.40326300  0.40326300  0.80652600  1.0
  Pt  Pt3  1  0.64351800  0.64351800  0.28703600  1.0
