# generated using pymatgen
data_CaSi
_symmetry_space_group_name_H-M   Pnma
_cell_length_a   3.82890600
_cell_length_b   10.97998600
_cell_length_c   14.72556600
_cell_angle_alpha   90.00000000
_cell_angle_beta   90.00000000
_cell_angle_gamma   90.00000000
_symmetry_Int_Tables_number   62
_chemical_formula_structural   CaSi
_chemical_formula_sum   'Ca12 Si12'
_cell_volume   619.08244260
_cell_formula_units_Z   12
loop_
 _symmetry_equiv_pos_site_id
 _symmetry_equiv_pos_as_xyz
  1  'x, y, z'
  2  '-x, -y, -z'
  3  '-x, y+1/2, -z+1/2'
  4  'x, -y+1/2, z+1/2'
  5  '-x+1/2, -y+1/2, z+1/2'
  6  'x+1/2, y+1/2, -z+1/2'
  7  'x+1/2, -y, -z'
  8  '-x+1/2, y, z'
loop_
 _atom_site_type_symbol
 _atom_site_label
 _atom_site_symmetry_multiplicity
 _atom_site_fract_x
 _atom_site_fract_y
 _atom_site_fract_z
 _atom_site_occupancy
  Ca  Ca0  4  0.25000000  0.01770900  0.88940200  1.0
  Ca  Ca1  4  0.25000000  0.16437600  0.32225600  1.0
  Ca  Ca2  4  0.25000000  0.64320100  0.84950900  1.0
  Si  Si3  4  0.25000000  0.18275400  0.05750100  1.0
  Si  Si4  4  0.25000000  0.53232100  0.04258900  1.0
  Si  Si5  4  0.25000000  0.73620600  0.53408700  1.0
