# generated using pymatgen
data_CaSi3
_symmetry_space_group_name_H-M   I4/mmm
_cell_length_a   7.25977000
_cell_length_b   7.64928384
_cell_length_c   7.25977000
_cell_angle_alpha   61.67064866
_cell_angle_beta   89.99999999
_cell_angle_gamma   118.32935133
_symmetry_Int_Tables_number   139
_chemical_formula_structural   CaSi3
_chemical_formula_sum   'Ca4 Si12'
_cell_volume   298.88201362
_cell_formula_units_Z   4
loop_
 _symmetry_equiv_pos_site_id
 _symmetry_equiv_pos_as_xyz
  1  'x, y, z'
  2  '-x, -y, -z'
  3  '-z, y, x-y'
  4  'z, -y, -x+y'
  5  '-x+y, y, -y-z'
  6  'x-y, -y, y+z'
  7  'y+z, y, -x'
  8  '-y-z, -y, x'
  9  '-x, -y, y+z'
  10  'x, y, -y-z'
  11  'z, -y, x'
  12  '-z, y, -x'
  13  'x-y, -y, -z'
  14  '-x+y, y, z'
  15  '-y-z, -y, -x+y'
  16  'y+z, y, x-y'
loop_
 _atom_site_type_symbol
 _atom_site_label
 _atom_site_symmetry_multiplicity
 _atom_site_fract_x
 _atom_site_fract_y
 _atom_site_fract_z
 _atom_site_occupancy
  Ca  Ca0  2  0.17310000  0.34620000  0.82690000  1.0
  Ca  Ca1  2  0.25000000  0.50000000  0.25000000  1.0
  Si  Si2  8  0.20994800  0.79079500  0.41915300  1.0
  Si  Si3  4  0.00000000  0.00000000  0.33546400  1.0
