# generated using pymatgen
data_CaTiO3
_symmetry_space_group_name_H-M   R-3
_cell_length_a   5.34101617
_cell_length_b   5.34101617
_cell_length_c   5.92377510
_cell_angle_alpha   63.20421369
_cell_angle_beta   63.20421369
_cell_angle_gamma   59.99999786
_symmetry_Int_Tables_number   148
_chemical_formula_structural   CaTiO3
_chemical_formula_sum   'Ca2 Ti2 O6'
_cell_volume   124.95341684
_cell_formula_units_Z   2
loop_
 _symmetry_equiv_pos_site_id
 _symmetry_equiv_pos_as_xyz
  1  'x, y, z'
  2  '-x, -y, -z'
  3  '-x-y-z, x, z'
  4  'x+y+z, -x, -z'
  5  'y, -x-y-z, z'
  6  '-y, x+y+z, -z'
loop_
 _atom_site_type_symbol
 _atom_site_label
 _atom_site_symmetry_multiplicity
 _atom_site_fract_x
 _atom_site_fract_y
 _atom_site_fract_z
 _atom_site_occupancy
  Ca  Ca0  2  0.36332100  0.36332100  0.91003700  1.0
  Ti  Ti1  2  0.14920700  0.14920700  0.55237900  1.0
  O  O2  6  0.02663200  0.43476200  0.72480700  1.0
