# generated using pymatgen
data_CaTiO3
_symmetry_space_group_name_H-M   Pnma
_cell_length_a   5.40776000
_cell_length_b   5.50742900
_cell_length_c   7.69401200
_cell_angle_alpha   90.00000000
_cell_angle_beta   90.00000000
_cell_angle_gamma   90.00000000
_symmetry_Int_Tables_number   62
_chemical_formula_structural   CaTiO3
_chemical_formula_sum   'Ca4 Ti4 O12'
_cell_volume   229.14963799
_cell_formula_units_Z   4
loop_
 _symmetry_equiv_pos_site_id
 _symmetry_equiv_pos_as_xyz
  1  'x, y, z'
  2  '-x, -y, -z'
  3  'x+1/2, -y+1/2, -z'
  4  '-x+1/2, y+1/2, z'
  5  '-x+1/2, y+1/2, -z+1/2'
  6  'x+1/2, -y+1/2, z+1/2'
  7  '-x, -y, z+1/2'
  8  'x, y, -z+1/2'
loop_
 _atom_site_type_symbol
 _atom_site_label
 _atom_site_symmetry_multiplicity
 _atom_site_fract_x
 _atom_site_fract_y
 _atom_site_fract_z
 _atom_site_occupancy
  Ca  Ca0  4  0.00909400  0.95712500  0.25000000  1.0
  Ti  Ti1  4  0.00000000  0.50000000  0.00000000  1.0
  O  O2  8  0.20937700  0.20996200  0.04102900  1.0
  O  O3  4  0.07808600  0.48019400  0.75000000  1.0
