# generated using pymatgen
data_CaTiO3
_symmetry_space_group_name_H-M   Imma
_cell_length_a   5.45032853
_cell_length_b   5.45032853
_cell_length_c   5.45032853
_cell_angle_alpha   89.45351422
_cell_angle_beta   60.31152116
_cell_angle_gamma   119.68150017
_symmetry_Int_Tables_number   74
_chemical_formula_structural   CaTiO3
_chemical_formula_sum   'Ca2 Ti2 O6'
_cell_volume   115.02562121
_cell_formula_units_Z   2
loop_
 _symmetry_equiv_pos_site_id
 _symmetry_equiv_pos_as_xyz
  1  'x, y, z'
  2  '-x, -y, -z'
  3  'y+z, x+z+1/2, -z+1/2'
  4  '-y-z, -x-z+1/2, z+1/2'
  5  '-y-z, -y, -x+y'
  6  'y+z, y, x-y'
  7  '-x, -x-z+1/2, x-y+1/2'
  8  'x, x+z+1/2, -x+y+1/2'
loop_
 _atom_site_type_symbol
 _atom_site_label
 _atom_site_symmetry_multiplicity
 _atom_site_fract_x
 _atom_site_fract_y
 _atom_site_fract_z
 _atom_site_occupancy
  Ca  Ca0  2  0.01255400  0.26255400  0.75000000  1.0
  Ti  Ti1  2  0.50000000  0.00000000  0.50000000  1.0
  O  O2  4  0.00000000  0.29687300  0.20312700  1.0
  O  O3  2  0.41366700  0.16366700  0.25000000  1.0
