# generated using pymatgen
data_Ca3.33333333Ti3.33333333O10
_symmetry_space_group_name_H-M   Pbam
_cell_length_a   3.94311900
_cell_length_b   5.35137200
_cell_length_c   10.57661000
_cell_angle_alpha   90.00000000
_cell_angle_beta   90.00000000
_cell_angle_gamma   90.00000000
_symmetry_Int_Tables_number   55
_chemical_formula_structural   Ca3.33333333Ti3.33333333O10
_chemical_formula_sum   'Ca3.33333333 Ti3.33333333 O10'
_cell_volume   223.17806941
_cell_formula_units_Z   1
loop_
 _symmetry_equiv_pos_site_id
 _symmetry_equiv_pos_as_xyz
  1  'x, y, z'
  2  '-x, -y, -z'
  3  'x, -y, -z'
  4  '-x, y, z'
  5  '-x, y+1/2, -z+1/2'
  6  'x, -y+1/2, z+1/2'
  7  '-x, -y+1/2, z+1/2'
  8  'x, y+1/2, -z+1/2'
loop_
 _atom_site_type_symbol
 _atom_site_label
 _atom_site_symmetry_multiplicity
 _atom_site_fract_x
 _atom_site_fract_y
 _atom_site_fract_z
 _atom_site_occupancy
  Ca  Ca0  4  0.00000000  0.23372100  0.11718200  0.833333333325
  Ti  Ti1  4  0.50000000  0.22382000  0.37237600  0.833333333325
  O  O2  4  0.00000000  0.20440200  0.38774100  1.0
  O  O3  4  0.50000000  0.10622900  0.71233200  1.0
  O  O4  2  0.50000000  0.00000000  0.00000000  1.0
