# generated using pymatgen
data_CaTiO3
_symmetry_space_group_name_H-M   Cmcm
_cell_length_a   5.46298438
_cell_length_b   5.46298438
_cell_length_c   7.69697100
_cell_angle_alpha   90.00000000
_cell_angle_beta   90.00000000
_cell_angle_gamma   90.62957377
_symmetry_Int_Tables_number   63
_chemical_formula_structural   CaTiO3
_chemical_formula_sum   'Ca4 Ti4 O12'
_cell_volume   229.69606176
_cell_formula_units_Z   4
loop_
 _symmetry_equiv_pos_site_id
 _symmetry_equiv_pos_as_xyz
  1  'x, y, z'
  2  '-x, -y, -z'
  3  '-x, -y, z+1/2'
  4  'x, y, -z+1/2'
  5  'y, x, -z'
  6  '-y, -x, z'
  7  '-y, -x, -z+1/2'
  8  'y, x, z+1/2'
loop_
 _atom_site_type_symbol
 _atom_site_label
 _atom_site_symmetry_multiplicity
 _atom_site_fract_x
 _atom_site_fract_y
 _atom_site_fract_z
 _atom_site_occupancy
  Ca  Ca0  2  0.00480100  0.99519900  0.25000000  1.0
  Ca  Ca1  2  0.48718900  0.51281100  0.75000000  1.0
  Ti  Ti2  4  0.00000000  0.50000000  0.00000000  1.0
  O  O3  4  0.05574800  0.54665500  0.75000000  1.0
  O  O4  4  0.21043500  0.21043500  0.00000000  1.0
  O  O5  4  0.28578800  0.71421200  0.04883300  1.0
