# generated using pymatgen
data_CaTiO3
_symmetry_space_group_name_H-M   I4/mcm
_cell_length_a   5.41716200
_cell_length_b   5.48091573
_cell_length_c   5.41716200
_cell_angle_alpha   60.38404158
_cell_angle_beta   90.00000000
_cell_angle_gamma   119.61595842
_symmetry_Int_Tables_number   140
_chemical_formula_structural   CaTiO3
_chemical_formula_sum   'Ca2 Ti2 O6'
_cell_volume   115.03947350
_cell_formula_units_Z   2
loop_
 _symmetry_equiv_pos_site_id
 _symmetry_equiv_pos_as_xyz
  1  'x, y, z'
  2  '-x, -y, -z'
  3  '-z, y, x-y'
  4  'z, -y, -x+y'
  5  '-x+y, y, -y-z'
  6  'x-y, -y, y+z'
  7  'y+z, y, -x'
  8  '-y-z, -y, x'
  9  'x-y+1/2, -y, -z+1/2'
  10  '-x+y+1/2, y, z+1/2'
  11  '-y-z+1/2, -y, -x+y+1/2'
  12  'y+z+1/2, y, x-y+1/2'
  13  '-x+1/2, -y, y+z+1/2'
  14  'x+1/2, y, -y-z+1/2'
  15  'z+1/2, -y, x+1/2'
  16  '-z+1/2, y, -x+1/2'
loop_
 _atom_site_type_symbol
 _atom_site_label
 _atom_site_symmetry_multiplicity
 _atom_site_fract_x
 _atom_site_fract_y
 _atom_site_fract_z
 _atom_site_occupancy
  Ca  Ca0  2  0.25000000  0.50000000  0.25000000  1.0
  Ti  Ti1  2  0.00000000  0.00000000  0.00000000  1.0
  O  O2  4  0.19113300  0.00000000  0.69113300  1.0
  O  O3  2  0.25000000  0.50000000  0.75000000  1.0
