# generated using pymatgen
data_Ca2CuO3
_symmetry_space_group_name_H-M   Immm
_cell_length_a   3.28981000
_cell_length_b   3.83222600
_cell_length_c   6.59456324
_cell_angle_alpha   106.89145545
_cell_angle_beta   104.44399227
_cell_angle_gamma   90.00000001
_symmetry_Int_Tables_number   71
_chemical_formula_structural   Ca2CuO3
_chemical_formula_sum   'Ca2 Cu1 O3'
_cell_volume   76.80219383
_cell_formula_units_Z   1
loop_
 _symmetry_equiv_pos_site_id
 _symmetry_equiv_pos_as_xyz
  1  'x, y, z'
  2  '-x, -y, -z'
  3  '-x+z, -y+z, z'
  4  'x-z, y-z, -z'
  5  'x-z, -y, -z'
  6  '-x+z, y, z'
  7  '-x, y-z, -z'
  8  'x, -y+z, z'
loop_
 _atom_site_type_symbol
 _atom_site_label
 _atom_site_symmetry_multiplicity
 _atom_site_fract_x
 _atom_site_fract_y
 _atom_site_fract_z
 _atom_site_occupancy
  Ca  Ca0  2  0.35084600  0.85084600  0.70169200  1.0
  Cu  Cu1  1  0.00000000  0.50000000  0.00000000  1.0
  O  O2  2  0.16055700  0.66055700  0.32111400  1.0
  O  O3  1  0.00000000  0.00000000  0.00000000  1.0
