# generated using pymatgen
data_Ca2InN
_symmetry_space_group_name_H-M   Cmcm
_cell_length_a   3.51403200
_cell_length_b   5.00300700
_cell_length_c   10.33736409
_cell_angle_alpha   90.00000000
_cell_angle_beta   99.78592984
_cell_angle_gamma   90.00000000
_symmetry_Int_Tables_number   63
_chemical_formula_structural   Ca2InN
_chemical_formula_sum   'Ca4 In2 N2'
_cell_volume   179.09401900
_cell_formula_units_Z   2
loop_
 _symmetry_equiv_pos_site_id
 _symmetry_equiv_pos_as_xyz
  1  'x, y, z'
  2  '-x, -y, -z'
  3  '-x, y+1/2, -z'
  4  'x, -y+1/2, z'
  5  'x-z, -y, -z'
  6  '-x+z, y, z'
  7  '-x+z, -y+1/2, z'
  8  'x-z, y+1/2, -z'
loop_
 _atom_site_type_symbol
 _atom_site_label
 _atom_site_symmetry_multiplicity
 _atom_site_fract_x
 _atom_site_fract_y
 _atom_site_fract_z
 _atom_site_occupancy
  Ca  Ca0  2  0.21893100  0.75000000  0.43786200  1.0
  Ca  Ca1  2  0.37882600  0.75000000  0.75765200  1.0
  In  In2  2  0.03886800  0.75000000  0.07773600  1.0
  N  N3  2  0.19908800  0.25000000  0.39817600  1.0
