# generated using pymatgen
data_KCa2Nb3O10
_symmetry_space_group_name_H-M   Cmc2_1
_cell_length_a   3.95162200
_cell_length_b   7.87209800
_cell_length_c   15.09809151
_cell_angle_alpha   90.00000000
_cell_angle_beta   97.51957736
_cell_angle_gamma   90.00000000
_symmetry_Int_Tables_number   36
_chemical_formula_structural   KCa2Nb3O10
_chemical_formula_sum   'K2 Ca4 Nb6 O20'
_cell_volume   465.62570099
_cell_formula_units_Z   2
loop_
 _symmetry_equiv_pos_site_id
 _symmetry_equiv_pos_as_xyz
  1  'x, y, z'
  2  '-x, y+1/2, -z'
  3  '-x+z, y, z'
  4  'x-z, y+1/2, -z'
loop_
 _atom_site_type_symbol
 _atom_site_label
 _atom_site_symmetry_multiplicity
 _atom_site_fract_x
 _atom_site_fract_y
 _atom_site_fract_z
 _atom_site_occupancy
  K  K0  2  0.25688200  0.25011900  0.51376400  1.0
  Ca  Ca1  2  0.42370800  0.75416200  0.84741600  1.0
  Ca  Ca2  2  0.42820000  0.26053100  0.85640000  1.0
  Nb  Nb3  2  0.00191300  0.49722500  0.00382600  1.0
  Nb  Nb4  2  0.14173900  0.99778200  0.28347800  1.0
  Nb  Nb5  2  0.14355300  0.50543400  0.28710600  1.0
  O  O6  2  0.01844800  0.73291800  0.03689600  1.0
  O  O7  2  0.06235800  0.05402800  0.12471600  1.0
  O  O8  2  0.06545100  0.43009400  0.13090200  1.0
  O  O9  2  0.11824700  0.75027100  0.23649400  1.0
  O  O10  2  0.14124400  0.24984100  0.28248800  1.0
  O  O11  2  0.20099700  0.95952200  0.40199400  1.0
  O  O12  2  0.20302800  0.54044500  0.40605600  1.0
  O  O13  2  0.37208400  0.00617000  0.74416800  1.0
  O  O14  2  0.37414400  0.49518900  0.74828800  1.0
  O  O15  2  0.49963500  0.46126700  0.99927000  1.0
