# generated using pymatgen
data_Ca2Si5Pt3
_symmetry_space_group_name_H-M   Ibam
_cell_length_a   5.98284400
_cell_length_b   8.25619804
_cell_length_c   8.25619804
_cell_angle_alpha   75.24754655
_cell_angle_beta   68.75698581
_cell_angle_gamma   68.75698582
_symmetry_Int_Tables_number   72
_chemical_formula_structural   Ca2Si5Pt3
_chemical_formula_sum   'Ca4 Si10 Pt6'
_cell_volume   350.69088511
_cell_formula_units_Z   2
loop_
 _symmetry_equiv_pos_site_id
 _symmetry_equiv_pos_as_xyz
  1  'x, y, z'
  2  '-x, -y, -z'
  3  'x+y+z, -y, -z'
  4  '-x-y-z, y, z'
  5  '-x+1/2, -z, -y'
  6  'x+1/2, z, y'
  7  '-x-y-z+1/2, z, y'
  8  'x+y+z+1/2, -z, -y'
loop_
 _atom_site_type_symbol
 _atom_site_label
 _atom_site_symmetry_multiplicity
 _atom_site_fract_x
 _atom_site_fract_y
 _atom_site_fract_z
 _atom_site_occupancy
  Ca  Ca0  4  0.12899300  0.63726400  0.10475000  1.0
  Si  Si1  4  0.01964800  0.73035200  0.73035200  1.0
  Si  Si2  4  0.11184900  0.23845000  0.53785100  1.0
  Si  Si3  2  0.25000000  0.00000000  0.00000000  1.0
  Pt  Pt4  4  0.13577100  0.97978100  0.74867700  1.0
  Pt  Pt5  2  0.25000000  0.50000000  0.50000000  1.0
