# generated using pymatgen
data_Ca3.42857143Ru3.42857143O12
_symmetry_space_group_name_H-M   Pnma
_cell_length_a   5.42890300
_cell_length_b   5.59399800
_cell_length_c   7.74820400
_cell_angle_alpha   90.00000000
_cell_angle_beta   90.00000000
_cell_angle_gamma   90.00000000
_symmetry_Int_Tables_number   62
_chemical_formula_structural   Ca3.42857143Ru3.42857143O12
_chemical_formula_sum   'Ca3.42857143 Ru3.42857143 O12'
_cell_volume   235.30731885
_cell_formula_units_Z   1
loop_
 _symmetry_equiv_pos_site_id
 _symmetry_equiv_pos_as_xyz
  1  'x, y, z'
  2  '-x, -y, -z'
  3  'x+1/2, -y+1/2, -z'
  4  '-x+1/2, y+1/2, z'
  5  '-x+1/2, y+1/2, -z+1/2'
  6  'x+1/2, -y+1/2, z+1/2'
  7  '-x, -y, z+1/2'
  8  'x, y, -z+1/2'
loop_
 _atom_site_type_symbol
 _atom_site_label
 _atom_site_symmetry_multiplicity
 _atom_site_fract_x
 _atom_site_fract_y
 _atom_site_fract_z
 _atom_site_occupancy
  Ca  Ca0  4  0.01434500  0.94275600  0.75000000  0.8571428571499999
  Ru  Ru1  4  0.00000000  0.50000000  0.00000000  0.8571428571499999
  O  O2  8  0.19659200  0.20140100  0.54929700  1.0
  O  O3  4  0.09599500  0.47284000  0.25000000  1.0
