# generated using pymatgen
data_Ca4Sm2Cu3(ClO2)4
_symmetry_space_group_name_H-M   I4/mmm
_cell_length_a   3.90375200
_cell_length_b   3.90375200
_cell_length_c   21.69838401
_cell_angle_alpha   95.16101262
_cell_angle_beta   95.16101262
_cell_angle_gamma   90.00000005
_symmetry_Int_Tables_number   139
_chemical_formula_structural   Ca4Sm2Cu3(ClO2)4
_chemical_formula_sum   'Ca4 Sm2 Cu3 Cl4 O8'
_cell_volume   327.98110303
_cell_formula_units_Z   1
loop_
 _symmetry_equiv_pos_site_id
 _symmetry_equiv_pos_as_xyz
  1  'x, y, z'
  2  '-x, -y, -z'
  3  '-y+z, x, z'
  4  'y-z, -x, -z'
  5  '-x+z, -y+z, z'
  6  'x-z, y-z, -z'
  7  'y, -x+z, z'
  8  '-y, x-z, -z'
  9  'x-z, -y, -z'
  10  '-x+z, y, z'
  11  '-y, -x, -z'
  12  'y, x, z'
  13  '-x, y-z, -z'
  14  'x, -y+z, z'
  15  'y-z, x-z, -z'
  16  '-y+z, -x+z, z'
loop_
 _atom_site_type_symbol
 _atom_site_label
 _atom_site_symmetry_multiplicity
 _atom_site_fract_x
 _atom_site_fract_y
 _atom_site_fract_z
 _atom_site_occupancy
  Ca  Ca0  2  0.14375400  0.14375400  0.28750800  1.0
  Ca  Ca1  2  0.46315400  0.46315400  0.92630800  1.0
  Sm  Sm2  2  0.22188500  0.22188500  0.44377000  1.0
  Cu  Cu3  2  0.32005100  0.32005100  0.64010200  1.0
  Cu  Cu4  1  0.00000000  0.00000000  0.00000000  1.0
  Cl  Cl5  2  0.06453200  0.06453200  0.12906400  1.0
  Cl  Cl6  2  0.38468400  0.38468400  0.76936800  1.0
  O  O7  4  0.17903800  0.67903800  0.35807600  1.0
  O  O8  2  0.00000000  0.50000000  0.00000000  1.0
  O  O9  2  0.25000000  0.75000000  0.50000000  1.0
