# generated using pymatgen
data_Cd0.04Cu0.96S2
_symmetry_space_group_name_H-M   C2
_cell_length_a   3.71397310
_cell_length_b   3.71397310
_cell_length_c   4.97738304
_cell_angle_alpha   104.40568871
_cell_angle_beta   104.40568871
_cell_angle_gamma   106.30647362
_symmetry_Int_Tables_number   5
_chemical_formula_structural   Cd0.04Cu0.96S2
_chemical_formula_sum   'Cd0.04 Cu0.96 S2'
_cell_volume   59.95598008
_cell_formula_units_Z   1
loop_
 _symmetry_equiv_pos_site_id
 _symmetry_equiv_pos_as_xyz
  1  'x, y, z'
  2  '-y, -x, -z'
loop_
 _atom_site_type_symbol
 _atom_site_label
 _atom_site_symmetry_multiplicity
 _atom_site_fract_x
 _atom_site_fract_y
 _atom_site_fract_z
 _atom_site_occupancy
  Cu  Cu0  1  0.27705400  0.72294600  0.50000000  0.96
  Cd  Cd1  1  0.27705400  0.72294600  0.50000000  0.04
  S  S2  2  0.05192800  0.07732500  0.21964800  1.0
