# generated using pymatgen
data_MgCd
_symmetry_space_group_name_H-M   P6_3mc
_cell_length_a   4.71215200
_cell_length_b   4.71215171
_cell_length_c   7.59223700
_cell_angle_alpha   90.00000000
_cell_angle_beta   90.00000000
_cell_angle_gamma   120.00000206
_symmetry_Int_Tables_number   186
_chemical_formula_structural   MgCd
_chemical_formula_sum   'Mg2 Cd2'
_cell_volume   145.99532011
_cell_formula_units_Z   2
loop_
 _symmetry_equiv_pos_site_id
 _symmetry_equiv_pos_as_xyz
  1  'x, y, z'
  2  'x-y, x, z+1/2'
  3  '-y, x-y, z'
  4  '-x, -y, z+1/2'
  5  '-x+y, -x, z'
  6  'y, -x+y, z+1/2'
  7  'y, x, z+1/2'
  8  'x, x-y, z'
  9  'x-y, -y, z+1/2'
  10  '-y, -x, z'
  11  '-x, -x+y, z+1/2'
  12  '-x+y, y, z'
loop_
 _atom_site_type_symbol
 _atom_site_label
 _atom_site_symmetry_multiplicity
 _atom_site_fract_x
 _atom_site_fract_y
 _atom_site_fract_z
 _atom_site_occupancy
  Mg  Mg0  2  0.33333333  0.66666667  0.12410000  1.0
  Cd  Cd1  2  0.33333333  0.66666667  0.50090000  1.0
