# generated using pymatgen
data_Mg1.6Cd4
_symmetry_space_group_name_H-M   Cmcm
_cell_length_a   3.21677600
_cell_length_b   5.17461800
_cell_length_c   8.18547781
_cell_angle_alpha   90.00000000
_cell_angle_beta   101.33194592
_cell_angle_gamma   90.00000000
_symmetry_Int_Tables_number   63
_chemical_formula_structural   Mg1.6Cd4
_chemical_formula_sum   'Mg1.6 Cd4'
_cell_volume   133.59588322
_cell_formula_units_Z   1
loop_
 _symmetry_equiv_pos_site_id
 _symmetry_equiv_pos_as_xyz
  1  'x, y, z'
  2  '-x, -y, -z'
  3  '-x, y+1/2, -z'
  4  'x, -y+1/2, z'
  5  'x-z, -y, -z'
  6  '-x+z, y, z'
  7  '-x+z, -y+1/2, z'
  8  'x-z, y+1/2, -z'
loop_
 _atom_site_type_symbol
 _atom_site_label
 _atom_site_symmetry_multiplicity
 _atom_site_fract_x
 _atom_site_fract_y
 _atom_site_fract_z
 _atom_site_occupancy
  Mg  Mg0  2  0.27908100  0.25000000  0.55816200  0.8
  Cd  Cd1  2  0.05475100  0.75000000  0.10950200  1.0
  Cd  Cd2  2  0.38471600  0.75000000  0.76943200  1.0
