# generated using pymatgen
data_MgCd
_symmetry_space_group_name_H-M   Cm
_cell_length_a   3.19819600
_cell_length_b   6.06870609
_cell_length_c   7.31411199
_cell_angle_alpha   104.12064235
_cell_angle_beta   90.00000000
_cell_angle_gamma   105.27778235
_symmetry_Int_Tables_number   8
_chemical_formula_structural   MgCd
_chemical_formula_sum   'Mg3 Cd3'
_cell_volume   132.49034738
_cell_formula_units_Z   3
loop_
 _symmetry_equiv_pos_site_id
 _symmetry_equiv_pos_as_xyz
  1  'x, y, z'
  2  '-x+y, y, z'
loop_
 _atom_site_type_symbol
 _atom_site_label
 _atom_site_symmetry_multiplicity
 _atom_site_fract_x
 _atom_site_fract_y
 _atom_site_fract_z
 _atom_site_occupancy
  Mg  Mg0  1  0.00204300  0.00408600  0.00366000  1.0
  Mg  Mg1  1  0.05538500  0.11077000  0.60878300  1.0
  Mg  Mg2  1  0.33175500  0.66351000  0.66576400  1.0
  Cd  Cd3  1  0.39050500  0.78101000  0.27993600  1.0
  Cd  Cd4  1  0.66614200  0.33228400  0.33553700  1.0
  Cd  Cd5  1  0.72083800  0.44167600  0.93965400  1.0
