# generated using pymatgen
data_Mg2.4Cd3.6
_symmetry_space_group_name_H-M   Cmcm
_cell_length_a   5.17718300
_cell_length_b   5.36273400
_cell_length_c   5.44203285
_cell_angle_alpha   60.48086363
_cell_angle_beta   90.00000000
_cell_angle_gamma   90.00000000
_symmetry_Int_Tables_number   63
_chemical_formula_structural   Mg2.4Cd3.6
_chemical_formula_sum   'Mg2.4 Cd3.6'
_cell_volume   131.47876291
_cell_formula_units_Z   1
loop_
 _symmetry_equiv_pos_site_id
 _symmetry_equiv_pos_as_xyz
  1  'x, y, z'
  2  '-x, -y, -z'
  3  'x+1/2, -y, -z'
  4  '-x+1/2, y, z'
  5  '-x, -y-z, z'
  6  'x, y+z, -z'
  7  '-x+1/2, y+z, -z'
  8  'x+1/2, -y-z, z'
loop_
 _atom_site_type_symbol
 _atom_site_label
 _atom_site_symmetry_multiplicity
 _atom_site_fract_x
 _atom_site_fract_y
 _atom_site_fract_z
 _atom_site_occupancy
  Mg  Mg0  2  0.25000000  0.32548400  0.00000000  1.0
  Cd  Cd1  4  0.25000000  0.66459000  0.33325200  0.9
  Mg  Mg2  4  0.25000000  0.66459000  0.33325200  0.1
