# generated using pymatgen
data_Cd0.9Hg2.1
_symmetry_space_group_name_H-M   I4/mmm
_cell_length_a   4.10573000
_cell_length_b   4.10573000
_cell_length_c   5.34870366
_cell_angle_alpha   112.56964042
_cell_angle_beta   112.56964043
_cell_angle_gamma   89.99999999
_symmetry_Int_Tables_number   139
_chemical_formula_structural   Cd0.9Hg2.1
_chemical_formula_sum   'Cd0.9 Hg2.1'
_cell_volume   75.72558890
_cell_formula_units_Z   1
loop_
 _symmetry_equiv_pos_site_id
 _symmetry_equiv_pos_as_xyz
  1  'x, y, z'
  2  '-x, -y, -z'
  3  '-y+z, x, z'
  4  'y-z, -x, -z'
  5  '-x+z, -y+z, z'
  6  'x-z, y-z, -z'
  7  'y, -x+z, z'
  8  '-y, x-z, -z'
  9  'x-z, -y, -z'
  10  '-x+z, y, z'
  11  '-y, -x, -z'
  12  'y, x, z'
  13  '-x, y-z, -z'
  14  'x, -y+z, z'
  15  'y-z, x-z, -z'
  16  '-y+z, -x+z, z'
loop_
 _atom_site_type_symbol
 _atom_site_label
 _atom_site_symmetry_multiplicity
 _atom_site_fract_x
 _atom_site_fract_y
 _atom_site_fract_z
 _atom_site_occupancy
  Cd  Cd0  1  0.00000000  0.00000000  0.00000000  0.9
  Hg  Hg1  1  0.00000000  0.00000000  0.00000000  0.1
  Hg  Hg2  2  0.33328100  0.33328100  0.66656200  1.0
