# generated using pymatgen
data_Mg1.6Cd4
_symmetry_space_group_name_H-M   Cmcm
_cell_length_a   3.21565600
_cell_length_b   5.10857700
_cell_length_c   8.25035113
_cell_angle_alpha   90.00000000
_cell_angle_beta   101.23771058
_cell_angle_gamma   90.00000000
_symmetry_Int_Tables_number   63
_chemical_formula_structural   Mg1.6Cd4
_chemical_formula_sum   'Mg1.6 Cd4'
_cell_volume   132.93349323
_cell_formula_units_Z   1
loop_
 _symmetry_equiv_pos_site_id
 _symmetry_equiv_pos_as_xyz
  1  'x, y, z'
  2  '-x, -y, -z'
  3  '-x, y+1/2, -z'
  4  'x, -y+1/2, z'
  5  'x-z, -y, -z'
  6  '-x+z, y, z'
  7  '-x+z, -y+1/2, z'
  8  'x-z, y+1/2, -z'
loop_
 _atom_site_type_symbol
 _atom_site_label
 _atom_site_symmetry_multiplicity
 _atom_site_fract_x
 _atom_site_fract_y
 _atom_site_fract_z
 _atom_site_occupancy
  Mg  Mg0  2  0.44241000  0.25000000  0.88482000  0.8
  Cd  Cd1  2  0.10818700  0.25000000  0.21637400  1.0
  Cd  Cd2  2  0.22106700  0.75000000  0.44213400  1.0
