# generated using pymatgen
data_Mg1.8Cd4.2
_symmetry_space_group_name_H-M   C2/c
_cell_length_a   5.25345200
_cell_length_b   5.45800940
_cell_length_c   6.02250707
_cell_angle_alpha   66.25725086
_cell_angle_beta   64.14140639
_cell_angle_gamma   61.23222039
_symmetry_Int_Tables_number   15
_chemical_formula_structural   Mg1.8Cd4.2
_chemical_formula_sum   'Mg1.8 Cd4.2'
_cell_volume   132.08760474
_cell_formula_units_Z   1
loop_
 _symmetry_equiv_pos_site_id
 _symmetry_equiv_pos_as_xyz
  1  'x, y, z'
  2  '-x, -y, -z'
  3  'x+y+z, -y+1/2, -z+1/2'
  4  '-x-y-z, y+1/2, z+1/2'
loop_
 _atom_site_type_symbol
 _atom_site_label
 _atom_site_symmetry_multiplicity
 _atom_site_fract_x
 _atom_site_fract_y
 _atom_site_fract_z
 _atom_site_occupancy
  Mg  Mg0  2  0.08379000  0.25000000  0.75000000  0.9
  Cd  Cd1  2  0.08379000  0.25000000  0.75000000  0.1
  Cd  Cd2  4  0.24768300  0.08874000  0.24368600  1.0
