# generated using pymatgen
data_MgCd
_symmetry_space_group_name_H-M   C2
_cell_length_a   5.28664400
_cell_length_b   5.49379097
_cell_length_c   6.02868230
_cell_angle_alpha   63.55366825
_cell_angle_beta   63.99448421
_cell_angle_gamma   61.23964742
_symmetry_Int_Tables_number   5
_chemical_formula_structural   MgCd
_chemical_formula_sum   'Mg3 Cd3'
_cell_volume   131.70798274
_cell_formula_units_Z   3
loop_
 _symmetry_equiv_pos_site_id
 _symmetry_equiv_pos_as_xyz
  1  'x, y, z'
  2  'x+y+z, -y, -z'
loop_
 _atom_site_type_symbol
 _atom_site_label
 _atom_site_symmetry_multiplicity
 _atom_site_fract_x
 _atom_site_fract_y
 _atom_site_fract_z
 _atom_site_occupancy
  Mg  Mg0  2  0.32639700  0.67319700  0.99870300  1.0
  Mg  Mg1  1  0.50806800  0.50000000  0.50000000  1.0
  Cd  Cd2  2  0.16893700  0.16392700  0.50460600  1.0
  Cd  Cd3  1  0.66083200  0.00000000  0.00000000  1.0
