# generated using pymatgen
data_Cd0.08Cu1.92S4
_symmetry_space_group_name_H-M   Pnnm
_cell_length_a   3.65029000
_cell_length_b   4.72298500
_cell_length_c   5.82562500
_cell_angle_alpha   90.00000000
_cell_angle_beta   90.00000000
_cell_angle_gamma   90.00000000
_symmetry_Int_Tables_number   58
_chemical_formula_structural   Cd0.08Cu1.92S4
_chemical_formula_sum   'Cd0.08 Cu1.92 S4'
_cell_volume   100.43531830
_cell_formula_units_Z   1
loop_
 _symmetry_equiv_pos_site_id
 _symmetry_equiv_pos_as_xyz
  1  'x, y, z'
  2  '-x, -y, -z'
  3  'x, -y, -z'
  4  '-x, y, z'
  5  '-x+1/2, y+1/2, -z+1/2'
  6  'x+1/2, -y+1/2, z+1/2'
  7  '-x+1/2, -y+1/2, z+1/2'
  8  'x+1/2, y+1/2, -z+1/2'
loop_
 _atom_site_type_symbol
 _atom_site_label
 _atom_site_symmetry_multiplicity
 _atom_site_fract_x
 _atom_site_fract_y
 _atom_site_fract_z
 _atom_site_occupancy
  Cu  Cu0  2  0.00000000  0.00000000  0.00000000  0.96
  Cd  Cd1  2  0.00000000  0.00000000  0.00000000  0.04
  S  S2  4  0.00000000  0.17325600  0.39565000  1.0
