# generated using pymatgen
data_MgCd3
_symmetry_space_group_name_H-M   Imm2
_cell_length_a   3.20867600
_cell_length_b   5.28901200
_cell_length_c   6.12398037
_cell_angle_alpha   115.58362366
_cell_angle_beta   105.18736390
_cell_angle_gamma   89.99999998
_symmetry_Int_Tables_number   44
_chemical_formula_structural   MgCd3
_chemical_formula_sum   'Mg1 Cd3'
_cell_volume   89.69766851
_cell_formula_units_Z   1
loop_
 _symmetry_equiv_pos_site_id
 _symmetry_equiv_pos_as_xyz
  1  'x, y, z'
  2  '-x, y-z, -z'
  3  '-x+z, y, z'
  4  'x-z, y-z, -z'
loop_
 _atom_site_type_symbol
 _atom_site_label
 _atom_site_symmetry_multiplicity
 _atom_site_fract_x
 _atom_site_fract_y
 _atom_site_fract_z
 _atom_site_occupancy
  Mg  Mg0  1  0.00000000  0.66395400  0.00000000  1.0
  Cd  Cd1  2  0.25160400  0.25205300  0.50320800  1.0
  Cd  Cd2  1  0.50000000  0.16848200  0.00000000  1.0
