# generated using pymatgen
data_Cd(Mo3Se4)2
_symmetry_space_group_name_H-M   R-3
_cell_length_a   6.83078904
_cell_length_b   6.83078904
_cell_length_c   6.83078917
_cell_angle_alpha   91.51072980
_cell_angle_beta   91.51072980
_cell_angle_gamma   91.51073579
_symmetry_Int_Tables_number   148
_chemical_formula_structural   Cd(Mo3Se4)2
_chemical_formula_sum   'Cd1 Mo6 Se8'
_cell_volume   318.38410741
_cell_formula_units_Z   1
loop_
 _symmetry_equiv_pos_site_id
 _symmetry_equiv_pos_as_xyz
  1  'x, y, z'
  2  '-x, -y, -z'
  3  'z, x, y'
  4  '-z, -x, -y'
  5  'y, z, x'
  6  '-y, -z, -x'
loop_
 _atom_site_type_symbol
 _atom_site_label
 _atom_site_symmetry_multiplicity
 _atom_site_fract_x
 _atom_site_fract_y
 _atom_site_fract_z
 _atom_site_occupancy
  Cd  Cd0  1  0.00000000  0.00000000  0.00000000  1.0
  Mo  Mo1  6  0.23411700  0.41861900  0.55359100  1.0
  Se  Se2  6  0.12548800  0.74002300  0.37610000  1.0
  Se  Se3  2  0.22906100  0.22906100  0.22906100  1.0
