# generated using pymatgen
data_Cd(Mo3S4)2
_symmetry_space_group_name_H-M   R-3
_cell_length_a   6.56754326
_cell_length_b   6.56754326
_cell_length_c   6.56754361
_cell_angle_alpha   92.49007038
_cell_angle_beta   92.49007038
_cell_angle_gamma   92.49006996
_symmetry_Int_Tables_number   148
_chemical_formula_structural   Cd(Mo3S4)2
_chemical_formula_sum   'Cd1 Mo6 S8'
_cell_volume   282.44889984
_cell_formula_units_Z   1
loop_
 _symmetry_equiv_pos_site_id
 _symmetry_equiv_pos_as_xyz
  1  'x, y, z'
  2  '-x, -y, -z'
  3  'z, x, y'
  4  '-z, -x, -y'
  5  'y, z, x'
  6  '-y, -z, -x'
loop_
 _atom_site_type_symbol
 _atom_site_label
 _atom_site_symmetry_multiplicity
 _atom_site_fract_x
 _atom_site_fract_y
 _atom_site_fract_z
 _atom_site_occupancy
  Cd  Cd0  1  0.00000000  0.00000000  0.00000000  1.0
  Mo  Mo1  6  0.22006800  0.55351000  0.40941000  1.0
  S  S2  6  0.13203900  0.38025100  0.72667200  1.0
  S  S3  2  0.22624000  0.22624000  0.22624000  1.0
