# generated using pymatgen
data_Ce0.153Nd1.847Cu1O4
_symmetry_space_group_name_H-M   I4/mmm
_cell_length_a   3.76078800
_cell_length_b   3.76078800
_cell_length_c   7.01343203
_cell_angle_alpha   105.55202456
_cell_angle_beta   105.55202456
_cell_angle_gamma   89.99999999
_symmetry_Int_Tables_number   139
_chemical_formula_structural   Ce0.153Nd1.847Cu1O4
_chemical_formula_sum   'Ce0.153 Nd1.847 Cu1 O4'
_cell_volume   91.78752599
_cell_formula_units_Z   1
loop_
 _symmetry_equiv_pos_site_id
 _symmetry_equiv_pos_as_xyz
  1  'x, y, z'
  2  '-x, -y, -z'
  3  '-y+z, x, z'
  4  'y-z, -x, -z'
  5  '-x+z, -y+z, z'
  6  'x-z, y-z, -z'
  7  'y, -x+z, z'
  8  '-y, x-z, -z'
  9  'x-z, -y, -z'
  10  '-x+z, y, z'
  11  '-y, -x, -z'
  12  'y, x, z'
  13  '-x, y-z, -z'
  14  'x, -y+z, z'
  15  'y-z, x-z, -z'
  16  '-y+z, -x+z, z'
loop_
 _atom_site_type_symbol
 _atom_site_label
 _atom_site_symmetry_multiplicity
 _atom_site_fract_x
 _atom_site_fract_y
 _atom_site_fract_z
 _atom_site_occupancy
  Nd  Nd0  2  0.36208600  0.36208600  0.72417200  0.9235
  Ce  Ce1  2  0.36208600  0.36208600  0.72417200  0.0765
  Cu  Cu2  1  0.00000000  0.00000000  0.00000000  1.0
  O  O3  2  0.00000000  0.50000000  0.00000000  1.0
  O  O4  2  0.18478900  0.18478900  0.36957800  1.0
