# generated using pymatgen
data_La1Ce0.15Nd0.85Cu1O4
_symmetry_space_group_name_H-M   I4mm
_cell_length_a   3.99058400
_cell_length_b   3.99058400
_cell_length_c   6.86113394
_cell_angle_alpha   106.90650496
_cell_angle_beta   106.90650496
_cell_angle_gamma   90.00000000
_symmetry_Int_Tables_number   107
_chemical_formula_structural   La1Ce0.15Nd0.85Cu1O4
_chemical_formula_sum   'La1 Ce0.15 Nd0.85 Cu1 O4'
_cell_volume   99.59378754
_cell_formula_units_Z   1
loop_
 _symmetry_equiv_pos_site_id
 _symmetry_equiv_pos_as_xyz
  1  'x, y, z'
  2  '-y+z, x, z'
  3  '-x+z, -y+z, z'
  4  'y, -x+z, z'
  5  '-x+z, y, z'
  6  'y, x, z'
  7  'x, -y+z, z'
  8  '-y+z, -x+z, z'
loop_
 _atom_site_type_symbol
 _atom_site_label
 _atom_site_symmetry_multiplicity
 _atom_site_fract_x
 _atom_site_fract_y
 _atom_site_fract_z
 _atom_site_occupancy
  La  La0  1  0.34981100  0.34981100  0.69962200  1.0
  Nd  Nd1  1  0.64953000  0.64953000  0.29906000  0.85
  Ce  Ce2  1  0.64953000  0.64953000  0.29906000  0.15
  Cu  Cu3  1  0.00157100  0.00157100  0.00314200  1.0
  O  O4  2  0.00188400  0.50188400  0.00376800  1.0
  O  O5  2  0.24766000  0.74766000  0.49532000  1.0
