# generated using pymatgen
data_Ce0.05Pr0.95Ge12Pt4
_symmetry_space_group_name_H-M   Im-3
_cell_length_a   7.56090753
_cell_length_b   7.56090753
_cell_length_c   7.56090753
_cell_angle_alpha   109.47122063
_cell_angle_beta   109.47122064
_cell_angle_gamma   109.47122064
_symmetry_Int_Tables_number   204
_chemical_formula_structural   Ce0.05Pr0.95Ge12Pt4
_chemical_formula_sum   'Ce0.05 Pr0.95 Ge12 Pt4'
_cell_volume   332.73607493
_cell_formula_units_Z   1
loop_
 _symmetry_equiv_pos_site_id
 _symmetry_equiv_pos_as_xyz
  1  'x, y, z'
  2  '-x, -y, -z'
  3  'y-z, x-z, -z'
  4  '-y+z, -x+z, z'
  5  '-y+z, -y, x-y'
  6  'y-z, y, -x+y'
  7  '-x, -x+z, -x+y'
  8  'x, x-z, x-y'
  9  '-y, x-y, -y+z'
  10  'y, -x+y, y-z'
  11  '-x+z, -x+y, -x'
  12  'x-z, x-y, x'
  13  'y, z, x'
  14  '-y, -z, -x'
  15  'x-z, -z, y-z'
  16  '-x+z, z, -y+z'
  17  '-x+y, -x, -x+z'
  18  'x-y, x, x-z'
  19  'x-y, -y+z, -y'
  20  '-x+y, y-z, y'
  21  '-z, y-z, x-z'
  22  'z, -y+z, -x+z'
  23  'z, x, y'
  24  '-z, -x, -y'
loop_
 _atom_site_type_symbol
 _atom_site_label
 _atom_site_symmetry_multiplicity
 _atom_site_fract_x
 _atom_site_fract_y
 _atom_site_fract_z
 _atom_site_occupancy
  Pr  Pr0  1  0.00000000  0.00000000  0.00000000  0.95
  Ce  Ce1  1  0.00000000  0.00000000  0.00000000  0.05
  Ge  Ge2  12  0.15152200  0.35430800  0.50583000  1.0
  Pt  Pt3  4  0.00000000  0.00000000  0.50000000  1.0
