# generated using pymatgen
data_Ce0.98Th0.02Si1Pt3
_symmetry_space_group_name_H-M   P4mm
_cell_length_a   4.06788400
_cell_length_b   4.06788400
_cell_length_c   5.55262300
_cell_angle_alpha   90.00000000
_cell_angle_beta   90.00000000
_cell_angle_gamma   90.00000000
_symmetry_Int_Tables_number   99
_chemical_formula_structural   Ce0.98Th0.02Si1Pt3
_chemical_formula_sum   'Ce0.98 Th0.02 Si1 Pt3'
_cell_volume   91.88302988
_cell_formula_units_Z   1
loop_
 _symmetry_equiv_pos_site_id
 _symmetry_equiv_pos_as_xyz
  1  'x, y, z'
  2  '-y, x, z'
  3  '-x, -y, z'
  4  'y, -x, z'
  5  '-x, y, z'
  6  'y, x, z'
  7  'x, -y, z'
  8  '-y, -x, z'
loop_
 _atom_site_type_symbol
 _atom_site_label
 _atom_site_symmetry_multiplicity
 _atom_site_fract_x
 _atom_site_fract_y
 _atom_site_fract_z
 _atom_site_occupancy
  Ce  Ce0  1  0.50000000  0.50000000  0.73045400  0.98
  Th  Th1  1  0.50000000  0.50000000  0.73045400  0.02
  Si  Si2  1  0.00000000  0.00000000  0.00573500  1.0
  Pt  Pt3  2  0.00000000  0.50000000  0.23738000  1.0
  Pt  Pt4  1  0.00000000  0.00000000  0.58945100  1.0
