# generated using pymatgen
data_Ce0.18Nd1.82Cu1O4
_symmetry_space_group_name_H-M   C2/m
_cell_length_a   3.98774313
_cell_length_b   3.98774313
_cell_length_c   6.52367809
_cell_angle_alpha   106.06587786
_cell_angle_beta   106.06587786
_cell_angle_gamma   90.08129785
_symmetry_Int_Tables_number   12
_chemical_formula_structural   Ce0.18Nd1.82Cu1O4
_chemical_formula_sum   'Ce0.18 Nd1.82 Cu1 O4'
_cell_volume   95.45266013
_cell_formula_units_Z   1
loop_
 _symmetry_equiv_pos_site_id
 _symmetry_equiv_pos_as_xyz
  1  'x, y, z'
  2  '-x, -y, -z'
  3  '-y, -x, -z'
  4  'y, x, z'
loop_
 _atom_site_type_symbol
 _atom_site_label
 _atom_site_symmetry_multiplicity
 _atom_site_fract_x
 _atom_site_fract_y
 _atom_site_fract_z
 _atom_site_occupancy
  Nd  Nd0  2  0.34468400  0.34468400  0.70097200  0.91
  Ce  Ce1  2  0.34468400  0.34468400  0.70097200  0.09
  Cu  Cu2  1  0.00000000  0.00000000  0.00000000  1.0
  O  O3  2  0.00000000  0.50000000  0.00000000  1.0
  O  O4  2  0.24740100  0.75259900  0.50000000  1.0
