# generated using pymatgen
data_Sr4CeNd3Nb2(CuO5)4
_symmetry_space_group_name_H-M   Amm2
_cell_length_a   5.58974800
_cell_length_b   5.59015800
_cell_length_c   14.79924348
_cell_angle_alpha   90.00000000
_cell_angle_beta   100.88582448
_cell_angle_gamma   90.00000000
_symmetry_Int_Tables_number   38
_chemical_formula_structural   Sr4CeNd3Nb2(CuO5)4
_chemical_formula_sum   'Sr4 Ce1 Nd3 Nb2 Cu4 O20'
_cell_volume   454.11906285
_cell_formula_units_Z   1
loop_
 _symmetry_equiv_pos_site_id
 _symmetry_equiv_pos_as_xyz
  1  'x, y, z'
  2  '-x+z, -y, z'
  3  'x, -y, z'
  4  '-x+z, y, z'
loop_
 _atom_site_type_symbol
 _atom_site_label
 _atom_site_symmetry_multiplicity
 _atom_site_fract_x
 _atom_site_fract_y
 _atom_site_fract_z
 _atom_site_occupancy
  Sr  Sr0  1  0.08107400  0.50000000  0.16214800  1.0
  Sr  Sr1  1  0.41831000  0.00000000  0.83662000  1.0
  Sr  Sr2  1  0.58189500  0.00000000  0.16379000  1.0
  Sr  Sr3  1  0.91830800  0.50000000  0.83661600  1.0
  Ce  Ce4  1  0.70809100  0.00000000  0.41618200  1.0
  Nd  Nd5  1  0.20503500  0.50000000  0.41007000  1.0
  Nd  Nd6  1  0.29421900  0.00000000  0.58843800  1.0
  Nd  Nd7  1  0.79422400  0.50000000  0.58844800  1.0
  Nb  Nb8  1  0.49995400  0.50000000  0.99990800  1.0
  Nb  Nb9  1  0.99995400  0.00000000  0.99990800  1.0
  Cu  Cu10  1  0.14279100  0.00000000  0.28558200  1.0
  Cu  Cu11  1  0.35755900  0.50000000  0.71511800  1.0
  Cu  Cu12  1  0.64269200  0.50000000  0.28538400  1.0
  Cu  Cu13  1  0.85764700  0.00000000  0.71529400  1.0
  O  O14  4  0.10315200  0.25036300  0.70590400  1.0
  O  O15  4  0.24994100  0.25011900  0.00025400  1.0
  O  O16  4  0.40021500  0.24695200  0.29573300  1.0
  O  O17  4  0.50463400  0.24389600  0.49700000  1.0
  O  O18  1  0.06836800  0.00000000  0.13673600  1.0
  O  O19  1  0.43187100  0.50000000  0.86374200  1.0
  O  O20  1  0.56844400  0.50000000  0.13688800  1.0
  O  O21  1  0.93178500  0.00000000  0.86357000  1.0
