# generated using pymatgen
data_Ce0.15Eu1.85Cu1O4
_symmetry_space_group_name_H-M   I4/mmm
_cell_length_a   3.91824400
_cell_length_b   3.91824400
_cell_length_c   6.69629925
_cell_angle_alpha   107.01175330
_cell_angle_beta   107.01175329
_cell_angle_gamma   90.00000001
_symmetry_Int_Tables_number   139
_chemical_formula_structural   Ce0.15Eu1.85Cu1O4
_chemical_formula_sum   'Ce0.15 Eu1.85 Cu1 O4'
_cell_volume   93.59330796
_cell_formula_units_Z   1
loop_
 _symmetry_equiv_pos_site_id
 _symmetry_equiv_pos_as_xyz
  1  'x, y, z'
  2  '-x, -y, -z'
  3  '-y+z, x, z'
  4  'y-z, -x, -z'
  5  '-x+z, -y+z, z'
  6  'x-z, y-z, -z'
  7  'y, -x+z, z'
  8  '-y, x-z, -z'
  9  'x-z, -y, -z'
  10  '-x+z, y, z'
  11  '-y, -x, -z'
  12  'y, x, z'
  13  '-x, y-z, -z'
  14  'x, -y+z, z'
  15  'y-z, x-z, -z'
  16  '-y+z, -x+z, z'
loop_
 _atom_site_type_symbol
 _atom_site_label
 _atom_site_symmetry_multiplicity
 _atom_site_fract_x
 _atom_site_fract_y
 _atom_site_fract_z
 _atom_site_occupancy
  Eu  Eu0  2  0.35214400  0.35214400  0.70428800  0.925
  Ce  Ce1  2  0.35214400  0.35214400  0.70428800  0.075
  Cu  Cu2  1  0.00000000  0.00000000  0.00000000  1.0
  O  O3  2  0.00000000  0.50000000  0.00000000  1.0
  O  O4  2  0.25000000  0.75000000  0.50000000  1.0
