# generated using pymatgen
data_Sr2CeEuCu2RuO10
_symmetry_space_group_name_H-M   Cm
_cell_length_a   3.89765054
_cell_length_b   3.89765054
_cell_length_c   14.72856415
_cell_angle_alpha   97.56564877
_cell_angle_beta   97.56564877
_cell_angle_gamma   90.07743923
_symmetry_Int_Tables_number   8
_chemical_formula_structural   Sr2CeEuCu2RuO10
_chemical_formula_sum   'Sr2 Ce1 Eu1 Cu2 Ru1 O10'
_cell_volume   219.83315794
_cell_formula_units_Z   1
loop_
 _symmetry_equiv_pos_site_id
 _symmetry_equiv_pos_as_xyz
  1  'x, y, z'
  2  'y, x, z'
loop_
 _atom_site_type_symbol
 _atom_site_label
 _atom_site_symmetry_multiplicity
 _atom_site_fract_x
 _atom_site_fract_y
 _atom_site_fract_z
 _atom_site_occupancy
  Sr  Sr0  1  0.42478800  0.42478800  0.84119600  1.0
  Sr  Sr1  1  0.58282700  0.58282700  0.15250000  1.0
  Ce  Ce2  1  0.70663400  0.70663400  0.41216000  1.0
  Eu  Eu3  1  0.29586500  0.29586500  0.59078700  1.0
  Cu  Cu4  1  0.14514200  0.14514200  0.28607300  1.0
  Cu  Cu5  1  0.85886300  0.85886300  0.71388000  1.0
  Ru  Ru6  1  0.02722600  0.02722600  0.00031800  1.0
  O  O7  2  0.04588300  0.52558700  0.00212700  1.0
  O  O8  2  0.15110200  0.65179400  0.29953500  1.0
  O  O9  2  0.24728100  0.74729400  0.49410500  1.0
  O  O10  2  0.35411700  0.85343700  0.70451800  1.0
  O  O11  1  0.07392600  0.07392600  0.13641600  1.0
  O  O12  1  0.93723500  0.93723500  0.86609900  1.0
