# generated using pymatgen
data_CeCu6
_symmetry_space_group_name_H-M   Pnma
_cell_length_a   5.02641700
_cell_length_b   8.05954700
_cell_length_c   10.09324000
_cell_angle_alpha   90.00000000
_cell_angle_beta   90.00000000
_cell_angle_gamma   90.00000000
_symmetry_Int_Tables_number   62
_chemical_formula_structural   CeCu6
_chemical_formula_sum   'Ce4 Cu24'
_cell_volume   408.88365298
_cell_formula_units_Z   4
loop_
 _symmetry_equiv_pos_site_id
 _symmetry_equiv_pos_as_xyz
  1  'x, y, z'
  2  '-x, -y, -z'
  3  '-x, -y+1/2, z+1/2'
  4  'x, y+1/2, -z+1/2'
  5  '-x+1/2, y+1/2, -z+1/2'
  6  'x+1/2, -y+1/2, z+1/2'
  7  'x+1/2, -y, -z'
  8  '-x+1/2, y, z'
loop_
 _atom_site_type_symbol
 _atom_site_label
 _atom_site_symmetry_multiplicity
 _atom_site_fract_x
 _atom_site_fract_y
 _atom_site_fract_z
 _atom_site_occupancy
  Ce  Ce0  4  0.25000000  0.25943600  0.56474300  1.0
  Cu  Cu1  8  0.00514800  0.43547600  0.80830700  1.0
  Cu  Cu2  4  0.25000000  0.06167600  0.09491900  1.0
  Cu  Cu3  4  0.25000000  0.14593100  0.85668200  1.0
  Cu  Cu4  4  0.25000000  0.31745800  0.25607100  1.0
  Cu  Cu5  4  0.25000000  0.40004900  0.01569000  1.0
