# generated using pymatgen
data_CeCu6
_symmetry_space_group_name_H-M   P2_1/c
_cell_length_a   5.02701100
_cell_length_b   8.06466072
_cell_length_c   10.10434100
_cell_angle_alpha   90.00000000
_cell_angle_beta   90.00000000
_cell_angle_gamma   90.98582617
_symmetry_Int_Tables_number   14
_chemical_formula_structural   CeCu6
_chemical_formula_sum   'Ce4 Cu24'
_cell_volume   409.58085006
_cell_formula_units_Z   4
loop_
 _symmetry_equiv_pos_site_id
 _symmetry_equiv_pos_as_xyz
  1  'x, y, z'
  2  '-x, -y, -z'
  3  '-x, -y+1/2, z+1/2'
  4  'x, y+1/2, -z+1/2'
loop_
 _atom_site_type_symbol
 _atom_site_label
 _atom_site_symmetry_multiplicity
 _atom_site_fract_x
 _atom_site_fract_y
 _atom_site_fract_z
 _atom_site_occupancy
  Ce  Ce0  4  0.25676200  0.25932500  0.56475000  1.0
  Cu  Cu1  4  0.00715600  0.43721900  0.80977700  1.0
  Cu  Cu2  4  0.23252300  0.06150300  0.09435900  1.0
  Cu  Cu3  4  0.24800400  0.14642800  0.85651600  1.0
  Cu  Cu4  4  0.24900500  0.31731100  0.25629700  1.0
  Cu  Cu5  4  0.25018200  0.39964100  0.01580600  1.0
  Cu  Cu6  4  0.49674700  0.43424900  0.80673200  1.0
