# generated using pymatgen
data_CeNiGe3
_symmetry_space_group_name_H-M   Cmmm
_cell_length_a   4.15286200
_cell_length_b   4.17015600
_cell_length_c   11.10566145
_cell_angle_alpha   90.00000000
_cell_angle_beta   100.77603818
_cell_angle_gamma   90.00000000
_symmetry_Int_Tables_number   65
_chemical_formula_structural   CeNiGe3
_chemical_formula_sum   'Ce2 Ni2 Ge6'
_cell_volume   188.93714421
_cell_formula_units_Z   2
loop_
 _symmetry_equiv_pos_site_id
 _symmetry_equiv_pos_as_xyz
  1  'x, y, z'
  2  '-x, -y, -z'
  3  '-x, y, -z'
  4  'x, -y, z'
  5  'x-z, -y, -z'
  6  '-x+z, y, z'
  7  '-x+z, -y, z'
  8  'x-z, y, -z'
loop_
 _atom_site_type_symbol
 _atom_site_label
 _atom_site_symmetry_multiplicity
 _atom_site_fract_x
 _atom_site_fract_y
 _atom_site_fract_z
 _atom_site_occupancy
  Ce  Ce0  2  0.33157700  0.50000000  0.66315400  1.0
  Ni  Ni1  2  0.10957300  0.00000000  0.21914700  1.0
  Ge  Ge2  2  0.05727400  0.50000000  0.11454800  1.0
  Ge  Ge3  2  0.21646600  0.00000000  0.43293200  1.0
  Ge  Ge4  2  0.44284100  0.00000000  0.88568300  1.0
