# generated using pymatgen
data_CeGe3Ir
_symmetry_space_group_name_H-M   I4mm
_cell_length_a   4.43489800
_cell_length_b   4.43489800
_cell_length_c   5.94364659
_cell_angle_alpha   111.90562544
_cell_angle_beta   111.90562544
_cell_angle_gamma   89.99999999
_symmetry_Int_Tables_number   107
_chemical_formula_structural   CeGe3Ir
_chemical_formula_sum   'Ce1 Ge3 Ir1'
_cell_volume   99.30607680
_cell_formula_units_Z   1
loop_
 _symmetry_equiv_pos_site_id
 _symmetry_equiv_pos_as_xyz
  1  'x, y, z'
  2  '-y+z, x, z'
  3  '-x+z, -y+z, z'
  4  'y, -x+z, z'
  5  '-x+z, y, z'
  6  'y, x, z'
  7  'x, -y+z, z'
  8  '-y+z, -x+z, z'
loop_
 _atom_site_type_symbol
 _atom_site_label
 _atom_site_symmetry_multiplicity
 _atom_site_fract_x
 _atom_site_fract_y
 _atom_site_fract_z
 _atom_site_occupancy
  Ce  Ce0  1  0.57680600  0.57680600  0.15361200  1.0
  Ge  Ge1  2  0.34392900  0.84392900  0.68785800  1.0
  Ge  Ge2  1  0.00140400  0.00140400  0.00280800  1.0
  Ir  Ir3  1  0.23960200  0.23960200  0.47920400  1.0
