# generated using pymatgen
data_CeIn7Pt2
_symmetry_space_group_name_H-M   I4/mmm
_cell_length_a   4.59261800
_cell_length_b   4.59261800
_cell_length_c   12.07835746
_cell_angle_alpha   100.95965050
_cell_angle_beta   100.95965051
_cell_angle_gamma   89.99999997
_symmetry_Int_Tables_number   139
_chemical_formula_structural   CeIn7Pt2
_chemical_formula_sum   'Ce1 In7 Pt2'
_cell_volume   245.37752093
_cell_formula_units_Z   1
loop_
 _symmetry_equiv_pos_site_id
 _symmetry_equiv_pos_as_xyz
  1  'x, y, z'
  2  '-x, -y, -z'
  3  '-y+z, x, z'
  4  'y-z, -x, -z'
  5  '-x+z, -y+z, z'
  6  'x-z, y-z, -z'
  7  'y, -x+z, z'
  8  '-y, x-z, -z'
  9  'x-z, -y, -z'
  10  '-x+z, y, z'
  11  '-y, -x, -z'
  12  'y, x, z'
  13  '-x, y-z, -z'
  14  'x, -y+z, z'
  15  'y-z, x-z, -z'
  16  '-y+z, -x+z, z'
loop_
 _atom_site_type_symbol
 _atom_site_label
 _atom_site_symmetry_multiplicity
 _atom_site_fract_x
 _atom_site_fract_y
 _atom_site_fract_z
 _atom_site_occupancy
  Ce  Ce0  1  0.00000000  0.00000000  0.00000000  1.0
  In  In1  4  0.10637100  0.60637100  0.21274200  1.0
  In  In2  2  0.25000000  0.75000000  0.50000000  1.0
  In  In3  1  0.50000000  0.50000000  0.00000000  1.0
  Pt  Pt4  2  0.32041500  0.32041500  0.64083000  1.0
