# generated using pymatgen
data_CeIr3
_symmetry_space_group_name_H-M   R-3m
_cell_length_a   5.32725833
_cell_length_b   5.32725833
_cell_length_c   9.37028350
_cell_angle_alpha   73.48517531
_cell_angle_beta   73.48517531
_cell_angle_gamma   59.99999590
_symmetry_Int_Tables_number   166
_chemical_formula_structural   CeIr3
_chemical_formula_sum   'Ce3 Ir9'
_cell_volume   217.53860909
_cell_formula_units_Z   3
loop_
 _symmetry_equiv_pos_site_id
 _symmetry_equiv_pos_as_xyz
  1  'x, y, z'
  2  '-x, -y, -z'
  3  '-x-y-z, x, z'
  4  'x+y+z, -x, -z'
  5  'y, -x-y-z, z'
  6  '-y, x+y+z, -z'
  7  '-x, x+y+z, -z'
  8  'x, -x-y-z, z'
  9  'x+y+z, -y, -z'
  10  '-x-y-z, y, z'
  11  '-y, -x, -z'
  12  'y, x, z'
loop_
 _atom_site_type_symbol
 _atom_site_label
 _atom_site_symmetry_multiplicity
 _atom_site_fract_x
 _atom_site_fract_y
 _atom_site_fract_z
 _atom_site_occupancy
  Ce  Ce0  2  0.13882900  0.13882900  0.58351300  1.0
  Ce  Ce1  1  0.00000000  0.00000000  0.00000000  1.0
  Ir  Ir2  6  0.08147600  0.58292600  0.75267200  1.0
  Ir  Ir3  2  0.33326900  0.33326900  0.00019300  1.0
  Ir  Ir4  1  0.50000000  0.50000000  0.50000000  1.0
