# generated using pymatgen
data_Ce(Mo3S4)2
_symmetry_space_group_name_H-M   R-3
_cell_length_a   6.53606757
_cell_length_b   6.53606757
_cell_length_c   6.53606814
_cell_angle_alpha   88.85007164
_cell_angle_beta   88.85007164
_cell_angle_gamma   88.85007267
_symmetry_Int_Tables_number   148
_chemical_formula_structural   Ce(Mo3S4)2
_chemical_formula_sum   'Ce1 Mo6 S8'
_cell_volume   279.05552412
_cell_formula_units_Z   1
loop_
 _symmetry_equiv_pos_site_id
 _symmetry_equiv_pos_as_xyz
  1  'x, y, z'
  2  '-x, -y, -z'
  3  'z, x, y'
  4  '-z, -x, -y'
  5  'y, z, x'
  6  '-y, -z, -x'
loop_
 _atom_site_type_symbol
 _atom_site_label
 _atom_site_symmetry_multiplicity
 _atom_site_fract_x
 _atom_site_fract_y
 _atom_site_fract_z
 _atom_site_occupancy
  Ce  Ce0  1  0.00000000  0.00000000  0.00000000  1.0
  Mo  Mo1  6  0.22526500  0.56313300  0.41975600  1.0
  S  S2  6  0.12567000  0.37469500  0.75060000  1.0
  S  S3  2  0.24269700  0.24269700  0.24269700  1.0
