# generated using pymatgen
data_CeSnRh
_symmetry_space_group_name_H-M   P-62m
_cell_length_a   4.08192900
_cell_length_b   7.49601200
_cell_length_c   7.49601216
_cell_angle_alpha   119.99999931
_cell_angle_beta   90.00000000
_cell_angle_gamma   90.00000000
_symmetry_Int_Tables_number   189
_chemical_formula_structural   CeSnRh
_chemical_formula_sum   'Ce3 Sn3 Rh3'
_cell_volume   198.63539424
_cell_formula_units_Z   3
loop_
 _symmetry_equiv_pos_site_id
 _symmetry_equiv_pos_as_xyz
  1  'x, y, z'
  2  '-x, -y+z, -y'
  3  'x, -z, y-z'
  4  '-x, y, z'
  5  'x, -y+z, -y'
  6  '-x, -z, y-z'
  7  'x, -y, -y+z'
  8  '-x, y-z, -z'
  9  'x, z, y'
  10  '-x, -y, -y+z'
  11  'x, y-z, -z'
  12  '-x, z, y'
loop_
 _atom_site_type_symbol
 _atom_site_label
 _atom_site_symmetry_multiplicity
 _atom_site_fract_x
 _atom_site_fract_y
 _atom_site_fract_z
 _atom_site_occupancy
  Ce  Ce0  3  0.00000000  0.00000000  0.41382600  1.0
  Sn  Sn1  3  0.50000000  0.00000000  0.74723200  1.0
  Rh  Rh2  2  0.50000000  0.33333333  0.66666667  1.0
  Rh  Rh3  1  0.00000000  0.00000000  0.00000000  1.0
