# generated using pymatgen
data_Ce2Ni3Ge5
_symmetry_space_group_name_H-M   Ibam
_cell_length_a   5.94052800
_cell_length_b   8.18416497
_cell_length_c   8.18416497
_cell_angle_alpha   73.06096101
_cell_angle_beta   68.71986588
_cell_angle_gamma   68.71986587
_symmetry_Int_Tables_number   72
_chemical_formula_structural   Ce2Ni3Ge5
_chemical_formula_sum   'Ce4 Ni6 Ge10'
_cell_volume   339.60039033
_cell_formula_units_Z   2
loop_
 _symmetry_equiv_pos_site_id
 _symmetry_equiv_pos_as_xyz
  1  'x, y, z'
  2  '-x, -y, -z'
  3  'x+y+z, -y, -z'
  4  '-x-y-z, y, z'
  5  '-x+1/2, -z, -y'
  6  'x+1/2, z, y'
  7  '-x-y-z+1/2, z, y'
  8  'x+y+z+1/2, -z, -y'
loop_
 _atom_site_type_symbol
 _atom_site_label
 _atom_site_symmetry_multiplicity
 _atom_site_fract_x
 _atom_site_fract_y
 _atom_site_fract_z
 _atom_site_occupancy
  Ce  Ce0  4  0.13168400  0.63514200  0.10149000  1.0
  Ni  Ni1  4  0.13809800  0.97164200  0.75216200  1.0
  Ni  Ni2  2  0.25000000  0.50000000  0.50000000  1.0
  Ge  Ge3  4  0.01900700  0.73099300  0.73099300  1.0
  Ge  Ge4  4  0.10087200  0.24316500  0.55509200  1.0
  Ge  Ge5  2  0.25000000  0.00000000  0.00000000  1.0
