# generated using pymatgen
data_Ce2Si5Ir3
_symmetry_space_group_name_H-M   Ibam
_cell_length_a   5.89644000
_cell_length_b   8.19873794
_cell_length_c   8.19873794
_cell_angle_alpha   75.26630402
_cell_angle_beta   68.92471305
_cell_angle_gamma   68.92471305
_symmetry_Int_Tables_number   72
_chemical_formula_structural   Ce2Si5Ir3
_chemical_formula_sum   'Ce4 Si10 Ir6'
_cell_volume   341.52674971
_cell_formula_units_Z   2
loop_
 _symmetry_equiv_pos_site_id
 _symmetry_equiv_pos_as_xyz
  1  'x, y, z'
  2  '-x, -y, -z'
  3  'x+y+z, -y, -z'
  4  '-x-y-z, y, z'
  5  '-x+1/2, -z, -y'
  6  'x+1/2, z, y'
  7  '-x-y-z+1/2, z, y'
  8  'x+y+z+1/2, -z, -y'
loop_
 _atom_site_type_symbol
 _atom_site_label
 _atom_site_symmetry_multiplicity
 _atom_site_fract_x
 _atom_site_fract_y
 _atom_site_fract_z
 _atom_site_occupancy
  Ce  Ce0  4  0.13157500  0.13817400  0.59867600  1.0
  Si  Si1  4  0.02343400  0.22656600  0.22656600  1.0
  Si  Si2  4  0.10721200  0.73967000  0.04590600  1.0
  Si  Si3  2  0.25000000  0.50000000  0.50000000  1.0
  Ir  Ir4  4  0.13895800  0.47502000  0.24706300  1.0
  Ir  Ir5  2  0.25000000  0.00000000  0.00000000  1.0
