# generated using pymatgen
data_Ce2Si5Rh3
_symmetry_space_group_name_H-M   Ibam
_cell_length_a   5.86072600
_cell_length_b   8.20457525
_cell_length_c   8.20457525
_cell_angle_alpha   74.73811309
_cell_angle_beta   69.07398963
_cell_angle_gamma   69.07398962
_symmetry_Int_Tables_number   72
_chemical_formula_structural   Ce2Si5Rh3
_chemical_formula_sum   'Ce4 Si10 Rh6'
_cell_volume   340.00194528
_cell_formula_units_Z   2
loop_
 _symmetry_equiv_pos_site_id
 _symmetry_equiv_pos_as_xyz
  1  'x, y, z'
  2  '-x, -y, -z'
  3  'x+y+z, -y, -z'
  4  '-x-y-z, y, z'
  5  '-x+1/2, -z, -y'
  6  'x+1/2, z, y'
  7  '-x-y-z+1/2, z, y'
  8  'x+y+z+1/2, -z, -y'
loop_
 _atom_site_type_symbol
 _atom_site_label
 _atom_site_symmetry_multiplicity
 _atom_site_fract_x
 _atom_site_fract_y
 _atom_site_fract_z
 _atom_site_occupancy
  Ce  Ce0  4  0.13222400  0.13606400  0.59948800  1.0
  Si  Si1  4  0.02497400  0.22502600  0.22502600  1.0
  Si  Si2  4  0.10720800  0.74021200  0.04537300  1.0
  Si  Si3  2  0.25000000  0.50000000  0.50000000  1.0
  Rh  Rh4  4  0.13825900  0.47351100  0.24997100  1.0
  Rh  Rh5  2  0.25000000  0.00000000  0.00000000  1.0
