# generated using pymatgen
data_Ce2S3
_symmetry_space_group_name_H-M   Pnma
_cell_length_a   4.03947200
_cell_length_b   7.45547400
_cell_length_c   15.45685900
_cell_angle_alpha   90.00000000
_cell_angle_beta   90.00000000
_cell_angle_gamma   90.00000000
_symmetry_Int_Tables_number   62
_chemical_formula_structural   Ce2S3
_chemical_formula_sum   'Ce8 S12'
_cell_volume   465.50152423
_cell_formula_units_Z   4
loop_
 _symmetry_equiv_pos_site_id
 _symmetry_equiv_pos_as_xyz
  1  'x, y, z'
  2  '-x, -y, -z'
  3  '-x, -y+1/2, z+1/2'
  4  'x, y+1/2, -z+1/2'
  5  '-x+1/2, y+1/2, -z+1/2'
  6  'x+1/2, -y+1/2, z+1/2'
  7  'x+1/2, -y, -z'
  8  '-x+1/2, y, z'
loop_
 _atom_site_type_symbol
 _atom_site_label
 _atom_site_symmetry_multiplicity
 _atom_site_fract_x
 _atom_site_fract_y
 _atom_site_fract_z
 _atom_site_occupancy
  Ce  Ce0  4  0.25000000  0.13721800  0.79330000  1.0
  Ce  Ce1  4  0.25000000  0.25934700  0.04281300  1.0
  S  S2  4  0.25000000  0.01110300  0.60750600  1.0
  S  S3  4  0.25000000  0.14742300  0.22018600  1.0
  S  S4  4  0.25000000  0.37043200  0.43153500  1.0
