# generated using pymatgen
data_Ce3(GeRh)2
_symmetry_space_group_name_H-M   Pbcm
_cell_length_a   5.60852900
_cell_length_b   8.08132400
_cell_length_c   13.30913100
_cell_angle_alpha   90.00000000
_cell_angle_beta   90.00000000
_cell_angle_gamma   90.00000000
_symmetry_Int_Tables_number   57
_chemical_formula_structural   Ce3(GeRh)2
_chemical_formula_sum   'Ce12 Ge8 Rh8'
_cell_volume   603.22757871
_cell_formula_units_Z   4
loop_
 _symmetry_equiv_pos_site_id
 _symmetry_equiv_pos_as_xyz
  1  'x, y, z'
  2  '-x, -y, -z'
  3  '-x, -y, z+1/2'
  4  'x, y, -z+1/2'
  5  'x, -y+1/2, -z'
  6  '-x, y+1/2, z'
  7  '-x, y+1/2, -z+1/2'
  8  'x, -y+1/2, z+1/2'
loop_
 _atom_site_type_symbol
 _atom_site_label
 _atom_site_symmetry_multiplicity
 _atom_site_fract_x
 _atom_site_fract_y
 _atom_site_fract_z
 _atom_site_occupancy
  Ce  Ce0  8  0.15592200  0.10327900  0.59770200  1.0
  Ce  Ce1  4  0.36371000  0.74193800  0.75000000  1.0
  Ge  Ge2  4  0.13080500  0.10761300  0.25000000  1.0
  Ge  Ge3  4  0.32463800  0.75000000  0.00000000  1.0
  Rh  Rh4  8  0.37873800  0.04206200  0.09307700  1.0
