# generated using pymatgen
data_Zr2N2Cl1.4
_symmetry_space_group_name_H-M   R-3m
_cell_length_a   3.64660777
_cell_length_b   3.64660777
_cell_length_c   9.79367004
_cell_angle_alpha   79.27055618
_cell_angle_beta   79.27055618
_cell_angle_gamma   60.00000411
_symmetry_Int_Tables_number   166
_chemical_formula_structural   Zr2N2Cl1.4
_chemical_formula_sum   'Zr2 N2 Cl1.4'
_cell_volume   110.14883137
_cell_formula_units_Z   1
loop_
 _symmetry_equiv_pos_site_id
 _symmetry_equiv_pos_as_xyz
  1  'x, y, z'
  2  '-x, -y, -z'
  3  '-x-y-z, x, z'
  4  'x+y+z, -x, -z'
  5  'y, -x-y-z, z'
  6  '-y, x+y+z, -z'
  7  '-x, x+y+z, -z'
  8  'x, -x-y-z, z'
  9  'x+y+z, -y, -z'
  10  '-x-y-z, y, z'
  11  '-y, -x, -z'
  12  'y, x, z'
loop_
 _atom_site_type_symbol
 _atom_site_label
 _atom_site_symmetry_multiplicity
 _atom_site_fract_x
 _atom_site_fract_y
 _atom_site_fract_z
 _atom_site_occupancy
  Zr  Zr0  2  0.12067700  0.12067700  0.63796900  1.0
  N  N1  2  0.19690600  0.19690600  0.40928200  1.0
  Cl  Cl2  2  0.39072700  0.39072700  0.82781900  0.7
