# generated using pymatgen
data_Sr2Cu2RuPb2ClO8
_symmetry_space_group_name_H-M   Amm2
_cell_length_a   3.92728957
_cell_length_b   3.92728957
_cell_length_c   15.34237400
_cell_angle_alpha   90.00000000
_cell_angle_beta   90.00000000
_cell_angle_gamma   89.80345794
_symmetry_Int_Tables_number   38
_chemical_formula_structural   Sr2Cu2RuPb2ClO8
_chemical_formula_sum   'Sr2 Cu2 Ru1 Pb2 Cl1 O8'
_cell_volume   236.63329904
_cell_formula_units_Z   1
loop_
 _symmetry_equiv_pos_site_id
 _symmetry_equiv_pos_as_xyz
  1  'x, y, z'
  2  '-y, -x, -z'
  3  'x, y, -z'
  4  '-y, -x, z'
loop_
 _atom_site_type_symbol
 _atom_site_label
 _atom_site_symmetry_multiplicity
 _atom_site_fract_x
 _atom_site_fract_y
 _atom_site_fract_z
 _atom_site_occupancy
  Sr  Sr0  2  0.50424400  0.49575600  0.35763000  1.0
  Cu  Cu1  2  0.00110300  0.99889700  0.76773600  1.0
  Ru  Ru2  1  0.02378600  0.97621400  0.50000000  1.0
  Pb  Pb3  2  0.50019100  0.49980900  0.87741700  1.0
  Cl  Cl4  1  0.00042600  0.99957400  0.00000000  1.0
  O  O5  4  0.00059900  0.49891200  0.21983300  1.0
  O  O6  2  0.04955000  0.48043700  0.50000000  1.0
  O  O7  2  0.98952000  0.01048000  0.37316300  1.0
