# generated using pymatgen
data_Na0.72Hf4N4Cl4
_symmetry_space_group_name_H-M   P2/m
_cell_length_a   3.64595100
_cell_length_b   6.30742700
_cell_length_c   10.25383418
_cell_angle_alpha   101.98346831
_cell_angle_beta   90.00000000
_cell_angle_gamma   90.00000000
_symmetry_Int_Tables_number   10
_chemical_formula_structural   Na0.72Hf4N4Cl4
_chemical_formula_sum   'Na0.72 Hf4 N4 Cl4'
_cell_volume   230.66428767
_cell_formula_units_Z   1
loop_
 _symmetry_equiv_pos_site_id
 _symmetry_equiv_pos_as_xyz
  1  'x, y, z'
  2  '-x, -y, -z'
  3  'x, -y, -z'
  4  '-x, y, z'
loop_
 _atom_site_type_symbol
 _atom_site_label
 _atom_site_symmetry_multiplicity
 _atom_site_fract_x
 _atom_site_fract_y
 _atom_site_fract_z
 _atom_site_occupancy
  Na  Na0  1  0.00000000  0.00000000  0.00000000  0.72
  Hf  Hf1  2  0.00000000  0.20940300  0.61943000  1.0
  Hf  Hf2  2  0.50000000  0.29438500  0.37632500  1.0
  N  N3  2  0.00000000  0.13332000  0.40756200  1.0
  N  N4  2  0.50000000  0.36079600  0.58930800  1.0
  Cl  Cl5  2  0.00000000  0.39544200  0.18365200  1.0
  Cl  Cl6  2  0.50000000  0.11005400  0.82315400  1.0
