# generated using pymatgen
data_Li0.52Zr4N4Cl4
_symmetry_space_group_name_H-M   R-3m
_cell_length_a   3.68177425
_cell_length_b   3.68177425
_cell_length_c   19.43607020
_cell_angle_alpha   84.56508407
_cell_angle_beta   84.56508407
_cell_angle_gamma   59.99999543
_symmetry_Int_Tables_number   166
_chemical_formula_structural   Li0.52Zr4N4Cl4
_chemical_formula_sum   'Li0.52 Zr4 N4 Cl4'
_cell_volume   226.79860241
_cell_formula_units_Z   1
loop_
 _symmetry_equiv_pos_site_id
 _symmetry_equiv_pos_as_xyz
  1  'x, y, z'
  2  '-x, -y, -z'
  3  '-x-y-z, x, z'
  4  'x+y+z, -x, -z'
  5  'y, -x-y-z, z'
  6  '-y, x+y+z, -z'
  7  '-x, x+y+z, -z'
  8  'x, -x-y-z, z'
  9  'x+y+z, -y, -z'
  10  '-x-y-z, y, z'
  11  '-y, -x, -z'
  12  'y, x, z'
loop_
 _atom_site_type_symbol
 _atom_site_label
 _atom_site_symmetry_multiplicity
 _atom_site_fract_x
 _atom_site_fract_y
 _atom_site_fract_z
 _atom_site_occupancy
  Li  Li0  1  0.00000000  0.00000000  0.00000000  0.52
  Zr  Zr1  2  0.10656800  0.10656800  0.68029600  1.0
  Zr  Zr2  2  0.39705100  0.39705100  0.80884700  1.0
  N  N3  2  0.06770900  0.06770900  0.79687300  1.0
  N  N4  2  0.43301800  0.43301800  0.70094600  1.0
  Cl  Cl5  2  0.19550600  0.19550600  0.41348200  1.0
  Cl  Cl6  2  0.30873300  0.30873300  0.07380100  1.0
