# generated using pymatgen
data_Na1.6Ti10N10Cl10
_symmetry_space_group_name_H-M   P-1
_cell_length_a   5.21790100
_cell_length_b   9.47050067
_cell_length_c   12.45463306
_cell_angle_alpha   69.82599680
_cell_angle_beta   87.56463731
_cell_angle_gamma   86.86692720
_symmetry_Int_Tables_number   2
_chemical_formula_structural   Na1.6Ti10N10Cl10
_chemical_formula_sum   'Na1.6 Ti10 N10 Cl10'
_cell_volume   576.65405440
_cell_formula_units_Z   1
loop_
 _symmetry_equiv_pos_site_id
 _symmetry_equiv_pos_as_xyz
  1  'x, y, z'
  2  '-x, -y, -z'
loop_
 _atom_site_type_symbol
 _atom_site_label
 _atom_site_symmetry_multiplicity
 _atom_site_fract_x
 _atom_site_fract_y
 _atom_site_fract_z
 _atom_site_occupancy
  Na  Na0  2  0.00200200  0.73555900  0.74377900  0.8
  Ti  Ti1  2  0.05709300  0.84586800  0.07751900  1.0
  Ti  Ti2  2  0.14272900  0.75253400  0.32438000  1.0
  Ti  Ti3  2  0.25801100  0.44370200  0.47901400  1.0
  Ti  Ti4  2  0.34235400  0.35297800  0.72526300  1.0
  Ti  Ti5  2  0.45852200  0.04554600  0.87730600  1.0
  N  N6  2  0.04515900  0.43674600  0.61542000  1.0
  N  N7  2  0.15543800  0.16450200  0.78433000  1.0
  N  N8  2  0.24463700  0.03599500  0.01558800  1.0
  N  N9  2  0.35474200  0.76426200  0.18514100  1.0
  N  N10  2  0.44491400  0.63434600  0.41484400  1.0
  Cl  Cl11  2  0.07895400  0.19211200  0.50822300  1.0
  Cl  Cl12  2  0.11879000  0.41192000  0.88804000  1.0
  Cl  Cl13  2  0.28635300  0.78784000  0.91234000  1.0
  Cl  Cl14  2  0.32638500  0.00766100  0.29239300  1.0
  Cl  Cl15  2  0.48041000  0.38644000  0.30862500  1.0
