# generated using pymatgen
data_Zr4FeCo
_symmetry_space_group_name_H-M   I422
_cell_length_a   5.27101135
_cell_length_b   5.27101135
_cell_length_c   5.27101135
_cell_angle_alpha   106.75675012
_cell_angle_beta   106.75675013
_cell_angle_gamma   115.04828215
_symmetry_Int_Tables_number   97
_chemical_formula_structural   Zr4FeCo
_chemical_formula_sum   'Zr4 Fe1 Co1'
_cell_volume   111.92637408
_cell_formula_units_Z   1
loop_
 _symmetry_equiv_pos_site_id
 _symmetry_equiv_pos_as_xyz
  1  'x, y, z'
  2  'x-z, x, x-y'
  3  'y-z, x-z, -z'
  4  'y, y-z, -x+y'
  5  '-y+z, -y, x-y'
  6  '-y, -x, -z'
  7  '-x, -x+z, -x+y'
  8  '-x+z, -y+z, z'
loop_
 _atom_site_type_symbol
 _atom_site_label
 _atom_site_symmetry_multiplicity
 _atom_site_fract_x
 _atom_site_fract_y
 _atom_site_fract_z
 _atom_site_occupancy
  Zr  Zr0  4  0.07236000  0.92763900  0.50000000  1.0
  Fe  Fe1  1  0.50000000  0.50000000  0.00000000  1.0
  Co  Co2  1  0.00000000  0.00000000  0.00000000  1.0
