# generated using pymatgen
data_U12Co1.92Mo0.08
_symmetry_space_group_name_H-M   I4/mcm
_cell_length_a   5.15966800
_cell_length_b   7.66916903
_cell_length_c   7.66916903
_cell_angle_alpha   83.50258264
_cell_angle_beta   70.34289699
_cell_angle_gamma   70.34289699
_symmetry_Int_Tables_number   140
_chemical_formula_structural   U12Co1.92Mo0.08
_chemical_formula_sum   'U12 Co1.92 Mo0.08'
_cell_volume   269.13143098
_cell_formula_units_Z   1
loop_
 _symmetry_equiv_pos_site_id
 _symmetry_equiv_pos_as_xyz
  1  'x, y, z'
  2  '-x, -y, -z'
  3  'x+y, z, -y'
  4  '-x-y, -z, y'
  5  'x+y+z, -y, -z'
  6  '-x-y-z, y, z'
  7  'x+z, -z, y'
  8  '-x-z, z, -y'
  9  '-x-y-z+1/2, z, y'
  10  'x+y+z+1/2, -z, -y'
  11  '-x-z+1/2, -y, z'
  12  'x+z+1/2, y, -z'
  13  '-x+1/2, -z, -y'
  14  'x+1/2, z, y'
  15  '-x-y+1/2, y, -z'
  16  'x+y+1/2, -y, z'
loop_
 _atom_site_type_symbol
 _atom_site_label
 _atom_site_symmetry_multiplicity
 _atom_site_fract_x
 _atom_site_fract_y
 _atom_site_fract_z
 _atom_site_occupancy
  U  U0  8  0.10479200  0.11197300  0.67844400  1.0
  U  U1  4  0.09403700  0.50000000  0.31192600  1.0
  Co  Co2  2  0.25000000  0.00000000  0.00000000  0.96
  Mo  Mo3  2  0.25000000  0.00000000  0.00000000  0.04
