# generated using pymatgen
data_Sr1.9La2.1Co1.6Cu0.4O8
_symmetry_space_group_name_H-M   Cmcm
_cell_length_a   5.43343800
_cell_length_b   5.45027400
_cell_length_c   6.86259051
_cell_angle_alpha   90.00000000
_cell_angle_beta   113.32047475
_cell_angle_gamma   90.00000000
_symmetry_Int_Tables_number   63
_chemical_formula_structural   Sr1.9La2.1Co1.6Cu0.4O8
_chemical_formula_sum   'Sr1.9 La2.1 Co1.6 Cu0.4 O8'
_cell_volume   186.62424927
_cell_formula_units_Z   1
loop_
 _symmetry_equiv_pos_site_id
 _symmetry_equiv_pos_as_xyz
  1  'x, y, z'
  2  '-x, -y, -z'
  3  '-x, y+1/2, -z'
  4  'x, -y+1/2, z'
  5  'x-z, -y, -z'
  6  '-x+z, y, z'
  7  '-x+z, -y+1/2, z'
  8  'x-z, y+1/2, -z'
loop_
 _atom_site_type_symbol
 _atom_site_label
 _atom_site_symmetry_multiplicity
 _atom_site_fract_x
 _atom_site_fract_y
 _atom_site_fract_z
 _atom_site_occupancy
  Sr  Sr0  2  0.39402300  0.75000000  0.78804600  0.95
  La  La1  2  0.39402300  0.75000000  0.78804600  0.05
  La  La2  2  0.11187300  0.75000000  0.22374600  1.0
  Co  Co3  2  0.25102100  0.25000000  0.50204200  0.8
  Cu  Cu4  2  0.25102100  0.25000000  0.50204200  0.2
  O  O5  4  0.00000000  0.00000000  0.50000000  1.0
  O  O6  2  0.07511200  0.25000000  0.15022400  1.0
  O  O7  2  0.41189900  0.25000000  0.82379800  1.0
