# generated using pymatgen
data_Ta4CoNi
_symmetry_space_group_name_H-M   I422
_cell_length_a   4.91491800
_cell_length_b   5.00718866
_cell_length_c   5.00718866
_cell_angle_alpha   76.06204234
_cell_angle_beta   60.60773190
_cell_angle_gamma   60.60773190
_symmetry_Int_Tables_number   97
_chemical_formula_structural   Ta4CoNi
_chemical_formula_sum   'Ta4 Co1 Ni1'
_cell_volume   93.54481611
_cell_formula_units_Z   1
loop_
 _symmetry_equiv_pos_site_id
 _symmetry_equiv_pos_as_xyz
  1  'x, y, z'
  2  'x+z, -z, y'
  3  'x+y+z, -y, -z'
  4  'x+y, z, -y'
  5  '-x-y-z, z, y'
  6  '-x-y, y, -z'
  7  '-x, -z, -y'
  8  '-x-z, -y, z'
loop_
 _atom_site_type_symbol
 _atom_site_label
 _atom_site_symmetry_multiplicity
 _atom_site_fract_x
 _atom_site_fract_y
 _atom_site_fract_z
 _atom_site_occupancy
  Ta  Ta0  4  0.09058700  0.81882500  0.50000000  1.0
  Co  Co1  1  0.50000000  0.00000000  0.00000000  1.0
  Ni  Ni2  1  0.00000000  0.00000000  0.00000000  1.0
