# generated using pymatgen
data_U4Fe0.08Co3.92
_symmetry_space_group_name_H-M   I2_13
_cell_length_a   5.46651343
_cell_length_b   5.46651343
_cell_length_c   5.46651343
_cell_angle_alpha   109.47122063
_cell_angle_beta   109.47122064
_cell_angle_gamma   109.47122064
_symmetry_Int_Tables_number   199
_chemical_formula_structural   U4Fe0.08Co3.92
_chemical_formula_sum   'U4 Fe0.08 Co3.92'
_cell_volume   125.75039776
_cell_formula_units_Z   1
loop_
 _symmetry_equiv_pos_site_id
 _symmetry_equiv_pos_as_xyz
  1  'x, y, z'
  2  'y-z+1/2, x-z, -z+1/2'
  3  '-y+z, -y+1/2, x-y+1/2'
  4  '-x+1/2, -x+z+1/2, -x+y'
  5  '-y+1/2, x-y, -y+z+1/2'
  6  '-x+z+1/2, -x+y+1/2, -x'
  7  'y, z+1/2, x+1/2'
  8  'x-z, -z, y-z'
  9  '-x+y+1/2, -x+1/2, -x+z'
  10  'x-y, -y+z, -y'
  11  '-z, y-z+1/2, x-z+1/2'
  12  'z+1/2, x, y+1/2'
loop_
 _atom_site_type_symbol
 _atom_site_label
 _atom_site_symmetry_multiplicity
 _atom_site_fract_x
 _atom_site_fract_y
 _atom_site_fract_z
 _atom_site_occupancy
  U  U0  4  0.00000000  0.50000000  0.07057800  1.0
  Co  Co1  4  0.00000000  0.50000000  0.59236000  0.98
  Fe  Fe2  4  0.00000000  0.50000000  0.59236000  0.02
