# generated using pymatgen
data_Lu10Co0.4Si20Ir7.6
_symmetry_space_group_name_H-M   P4/mbm
_cell_length_a   4.20996800
_cell_length_b   12.55344300
_cell_length_c   12.55344300
_cell_angle_alpha   90.00000000
_cell_angle_beta   90.00000000
_cell_angle_gamma   90.00000000
_symmetry_Int_Tables_number   127
_chemical_formula_structural   Lu10Co0.4Si20Ir7.6
_chemical_formula_sum   'Lu10 Co0.4 Si20 Ir7.6'
_cell_volume   663.44435731
_cell_formula_units_Z   1
loop_
 _symmetry_equiv_pos_site_id
 _symmetry_equiv_pos_as_xyz
  1  'x, y, z'
  2  '-x, -y, -z'
  3  'x, -z, y'
  4  '-x, z, -y'
  5  'x, -y, -z'
  6  '-x, y, z'
  7  'x, z, -y'
  8  '-x, -z, y'
  9  '-x, y+1/2, -z+1/2'
  10  'x, -y+1/2, z+1/2'
  11  '-x, -z+1/2, -y+1/2'
  12  'x, z+1/2, y+1/2'
  13  '-x, -y+1/2, z+1/2'
  14  'x, y+1/2, -z+1/2'
  15  '-x, z+1/2, y+1/2'
  16  'x, -z+1/2, -y+1/2'
loop_
 _atom_site_type_symbol
 _atom_site_label
 _atom_site_symmetry_multiplicity
 _atom_site_fract_x
 _atom_site_fract_y
 _atom_site_fract_z
 _atom_site_occupancy
  Lu  Lu0  4  0.50000000  0.11551400  0.38448600  1.0
  Lu  Lu1  4  0.50000000  0.17429400  0.67429400  1.0
  Lu  Lu2  2  0.00000000  0.00000000  0.00000000  1.0
  Si  Si3  8  0.00000000  0.16503400  0.20089500  1.0
  Si  Si4  8  0.50000000  0.00357900  0.84522900  1.0
  Si  Si5  4  0.00000000  0.06582100  0.56582100  1.0
  Ir  Ir6  8  0.00000000  0.01965800  0.75441100  0.95
  Co  Co7  8  0.00000000  0.01965800  0.75441100  0.05
