# generated using pymatgen
data_Co
_symmetry_space_group_name_H-M   P4_2/mnm
_cell_length_a   4.55547600
_cell_length_b   8.36703500
_cell_length_c   8.36703500
_cell_angle_alpha   90.00000000
_cell_angle_beta   90.00000000
_cell_angle_gamma   90.00000000
_symmetry_Int_Tables_number   136
_chemical_formula_structural   Co
_chemical_formula_sum   Co28
_cell_volume   318.91645968
_cell_formula_units_Z   28
loop_
 _symmetry_equiv_pos_site_id
 _symmetry_equiv_pos_as_xyz
  1  'x, y, z'
  2  '-x, -y, -z'
  3  'x+1/2, -z+1/2, y+1/2'
  4  '-x+1/2, z+1/2, -y+1/2'
  5  'x, -y, -z'
  6  '-x, y, z'
  7  'x+1/2, z+1/2, -y+1/2'
  8  '-x+1/2, -z+1/2, y+1/2'
  9  '-x+1/2, y+1/2, -z+1/2'
  10  'x+1/2, -y+1/2, z+1/2'
  11  '-x, -z, -y'
  12  'x, z, y'
  13  '-x+1/2, -y+1/2, z+1/2'
  14  'x+1/2, y+1/2, -z+1/2'
  15  '-x, z, y'
  16  'x, -z, -y'
loop_
 _atom_site_type_symbol
 _atom_site_label
 _atom_site_symmetry_multiplicity
 _atom_site_fract_x
 _atom_site_fract_y
 _atom_site_fract_z
 _atom_site_occupancy
  Co  Co0  8  0.00000000  0.05559100  0.75173900  1.0
  Co  Co1  8  0.00000000  0.13803400  0.47327000  1.0
  Co  Co2  8  0.24956600  0.31365200  0.68634800  1.0
  Co  Co3  4  0.00000000  0.40596200  0.40596200  1.0
