# generated using pymatgen
data_Zr2VCo3
_symmetry_space_group_name_H-M   R-3m
_cell_length_a   4.84598153
_cell_length_b   4.84598153
_cell_length_c   4.84598172
_cell_angle_alpha   63.45160077
_cell_angle_beta   63.45160077
_cell_angle_gamma   63.45159364
_symmetry_Int_Tables_number   166
_chemical_formula_structural   Zr2VCo3
_chemical_formula_sum   'Zr2 V1 Co3'
_cell_volume   86.61361429
_cell_formula_units_Z   1
loop_
 _symmetry_equiv_pos_site_id
 _symmetry_equiv_pos_as_xyz
  1  'x, y, z'
  2  '-x, -y, -z'
  3  'z, x, y'
  4  '-z, -x, -y'
  5  'y, z, x'
  6  '-y, -z, -x'
  7  '-z, -y, -x'
  8  'z, y, x'
  9  '-y, -x, -z'
  10  'y, x, z'
  11  '-x, -z, -y'
  12  'x, z, y'
loop_
 _atom_site_type_symbol
 _atom_site_label
 _atom_site_symmetry_multiplicity
 _atom_site_fract_x
 _atom_site_fract_y
 _atom_site_fract_z
 _atom_site_occupancy
  Zr  Zr0  2  0.37323200  0.37323200  0.37323200  1.0
  V  V1  1  0.00000000  0.00000000  0.00000000  1.0
  Co  Co2  3  0.00000000  0.00000000  0.50000000  1.0
