# generated using pymatgen
data_U4Co4Si0.32Ge3.68
_symmetry_space_group_name_H-M   Pnma
_cell_length_a   4.28722000
_cell_length_b   6.69300700
_cell_length_c   7.09945100
_cell_angle_alpha   90.00000000
_cell_angle_beta   90.00000000
_cell_angle_gamma   90.00000000
_symmetry_Int_Tables_number   62
_chemical_formula_structural   U4Co4Si0.32Ge3.68
_chemical_formula_sum   'U4 Co4 Si0.32 Ge3.68'
_cell_volume   203.71444042
_cell_formula_units_Z   1
loop_
 _symmetry_equiv_pos_site_id
 _symmetry_equiv_pos_as_xyz
  1  'x, y, z'
  2  '-x, -y, -z'
  3  '-x, -y+1/2, z+1/2'
  4  'x, y+1/2, -z+1/2'
  5  '-x+1/2, y+1/2, -z+1/2'
  6  'x+1/2, -y+1/2, z+1/2'
  7  'x+1/2, -y, -z'
  8  '-x+1/2, y, z'
loop_
 _atom_site_type_symbol
 _atom_site_label
 _atom_site_symmetry_multiplicity
 _atom_site_fract_x
 _atom_site_fract_y
 _atom_site_fract_z
 _atom_site_occupancy
  U  U0  4  0.25000000  0.01721400  0.79647800  1.0
  Co  Co1  4  0.25000000  0.28372900  0.07201300  1.0
  Ge  Ge2  4  0.25000000  0.19011700  0.40798600  0.92
  Si  Si3  4  0.25000000  0.19011700  0.40798600  0.08
