# generated using pymatgen
data_PrCoGe3
_symmetry_space_group_name_H-M   I4mm
_cell_length_a   4.34050800
_cell_length_b   4.34050800
_cell_length_c   5.84125064
_cell_angle_alpha   111.81057942
_cell_angle_beta   111.81057942
_cell_angle_gamma   90.00000000
_symmetry_Int_Tables_number   107
_chemical_formula_structural   PrCoGe3
_chemical_formula_sum   'Pr1 Co1 Ge3'
_cell_volume   93.63352938
_cell_formula_units_Z   1
loop_
 _symmetry_equiv_pos_site_id
 _symmetry_equiv_pos_as_xyz
  1  'x, y, z'
  2  '-y+z, x, z'
  3  '-x+z, -y+z, z'
  4  'y, -x+z, z'
  5  '-x+z, y, z'
  6  'y, x, z'
  7  'x, -y+z, z'
  8  '-y+z, -x+z, z'
loop_
 _atom_site_type_symbol
 _atom_site_label
 _atom_site_symmetry_multiplicity
 _atom_site_fract_x
 _atom_site_fract_y
 _atom_site_fract_z
 _atom_site_occupancy
  Pr  Pr0  1  0.43247400  0.43247400  0.86494800  1.0
  Co  Co1  1  0.76629600  0.76629600  0.53259200  1.0
  Ge  Ge2  2  0.17421000  0.67421000  0.34842000  1.0
  Ge  Ge3  1  0.99745100  0.99745100  0.99490200  1.0
