# generated using pymatgen
data_CoGe2
_symmetry_space_group_name_H-M   Cmce
_cell_length_a   5.67499000
_cell_length_b   6.15815487
_cell_length_c   5.67677800
_cell_angle_alpha   90.00000000
_cell_angle_beta   90.00000000
_cell_angle_gamma   117.43682614
_symmetry_Int_Tables_number   64
_chemical_formula_structural   CoGe2
_chemical_formula_sum   'Co4 Ge8'
_cell_volume   176.07410109
_cell_formula_units_Z   4
loop_
 _symmetry_equiv_pos_site_id
 _symmetry_equiv_pos_as_xyz
  1  'x, y, z'
  2  '-x, -y, -z'
  3  '-x+1/2, -y, z+1/2'
  4  'x+1/2, y, -z+1/2'
  5  '-x+y, y, -z'
  6  'x-y, -y, z'
  7  'x-y+1/2, -y, -z+1/2'
  8  '-x+y+1/2, y, z+1/2'
loop_
 _atom_site_type_symbol
 _atom_site_label
 _atom_site_symmetry_multiplicity
 _atom_site_fract_x
 _atom_site_fract_y
 _atom_site_fract_z
 _atom_site_occupancy
  Co  Co0  4  0.11680400  0.23360800  0.50000000  1.0
  Ge  Ge1  4  0.00102200  0.50000000  0.25000000  1.0
  Ge  Ge2  4  0.15886700  0.00000000  0.15883400  1.0
