# generated using pymatgen
data_LaCoO3
_symmetry_space_group_name_H-M   C2/c
_cell_length_a   6.30207900
_cell_length_b   10.54234393
_cell_length_c   10.54234393
_cell_angle_alpha   82.52045369
_cell_angle_beta   81.40569463
_cell_angle_gamma   81.40569463
_symmetry_Int_Tables_number   15
_chemical_formula_structural   LaCoO3
_chemical_formula_sum   'La2 Co2 O6'
_cell_volume   680.59949435
_cell_formula_units_Z   2
loop_
 _symmetry_equiv_pos_site_id
 _symmetry_equiv_pos_as_xyz
  1  'x, y, z'
  2  '-x, -y, -z'
  3  '-x+1/2, -z, -y'
  4  'x+1/2, z, y'
loop_
 _atom_site_type_symbol
 _atom_site_label
 _atom_site_symmetry_multiplicity
 _atom_site_fract_x
 _atom_site_fract_y
 _atom_site_fract_z
 _atom_site_occupancy
  La  La0  2  0.25000000  0.50269000  0.49731000  1.0
  Co  Co1  2  0.00000000  0.00000000  0.00000000  1.0
  O  O2  4  0.07450300  0.03317400  0.50126600  1.0
  O  O3  2  0.25000000  0.94465400  0.05534600  1.0
