# generated using pymatgen
data_LaCoO3
_symmetry_space_group_name_H-M   P-1
_cell_length_a   5.49830883
_cell_length_b   5.59082109
_cell_length_c   7.79286777
_cell_angle_alpha   89.72569796
_cell_angle_beta   91.74818082
_cell_angle_gamma   89.55862809
_symmetry_Int_Tables_number   2
_chemical_formula_structural   LaCoO3
_chemical_formula_sum   'La4 Co4 O12'
_cell_volume   239.43160532
_cell_formula_units_Z   4
loop_
 _symmetry_equiv_pos_site_id
 _symmetry_equiv_pos_as_xyz
  1  'x, y, z'
  2  '-x+1/2, -y+1/2, -z+1/2'
loop_
 _atom_site_type_symbol
 _atom_site_label
 _atom_site_symmetry_multiplicity
 _atom_site_fract_x
 _atom_site_fract_y
 _atom_site_fract_z
 _atom_site_occupancy
  La  La0  2  0.24832000  0.75324100  0.50301800  1.0
  La  La1  2  0.74993500  0.24621500  0.99924400  1.0
  Co  Co2  1  0.25000000  0.25000000  0.25000000  1.0
  Co  Co3  1  0.25000000  0.25000000  0.75000000  1.0
  Co  Co4  1  0.75000000  0.75000000  0.25000000  1.0
  Co  Co5  1  0.75000000  0.75000000  0.75000000  1.0
  O  O6  2  0.03695000  0.97864500  0.71577500  1.0
  O  O7  2  0.04934000  0.53170000  0.21777600  1.0
  O  O8  2  0.24187300  0.32228500  0.50990300  1.0
  O  O9  2  0.52449000  0.03930300  0.71487300  1.0
  O  O10  2  0.54244000  0.45751200  0.21693200  1.0
  O  O11  2  0.74737800  0.81134200  0.00506300  1.0
