# generated using pymatgen
data_La2CoO4
_symmetry_space_group_name_H-M   Cmce
_cell_length_a   5.48754788
_cell_length_b   5.74836900
_cell_length_c   6.84720380
_cell_angle_alpha   89.99905918
_cell_angle_beta   66.37817415
_cell_angle_gamma   89.99686607
_symmetry_Int_Tables_number   64
_chemical_formula_structural   La2CoO4
_chemical_formula_sum   'La4 Co2 O8'
_cell_volume   197.89340308
_cell_formula_units_Z   2
loop_
 _symmetry_equiv_pos_site_id
 _symmetry_equiv_pos_as_xyz
  1  'x, y, z'
  2  '-x, -y, -z'
  3  '-x+1/2, y+1/2, -z'
  4  'x+1/2, -y+1/2, z'
  5  'x+z, -y, -z'
  6  '-x-z, y, z'
  7  '-x-z+1/2, -y+1/2, z'
  8  'x+z+1/2, y+1/2, -z'
loop_
 _atom_site_type_symbol
 _atom_site_label
 _atom_site_symmetry_multiplicity
 _atom_site_fract_x
 _atom_site_fract_y
 _atom_site_fract_z
 _atom_site_occupancy
  La  La0  4  0.13805000  0.48202300  0.72390300  1.0
  Co  Co1  2  0.00000150  0.00000050  0.00000000  1.0
  O  O2  4  0.18206200  0.07349000  0.63588200  1.0
  O  O3  4  0.23054550  0.24999600  0.03890800  1.0
