# generated using pymatgen
data_LaCoO3
_symmetry_space_group_name_H-M   Pnma
_cell_length_a   5.46744700
_cell_length_b   5.55013600
_cell_length_c   7.80973500
_cell_angle_alpha   90.00000000
_cell_angle_beta   90.00000000
_cell_angle_gamma   90.00000000
_symmetry_Int_Tables_number   62
_chemical_formula_structural   LaCoO3
_chemical_formula_sum   'La4 Co4 O12'
_cell_volume   236.98698980
_cell_formula_units_Z   4
loop_
 _symmetry_equiv_pos_site_id
 _symmetry_equiv_pos_as_xyz
  1  'x, y, z'
  2  '-x, -y, -z'
  3  '-x+1/2, y+1/2, -z'
  4  'x+1/2, -y+1/2, z'
  5  'x+1/2, -y+1/2, -z+1/2'
  6  '-x+1/2, y+1/2, z+1/2'
  7  '-x, -y, z+1/2'
  8  'x, y, -z+1/2'
loop_
 _atom_site_type_symbol
 _atom_site_label
 _atom_site_symmetry_multiplicity
 _atom_site_fract_x
 _atom_site_fract_y
 _atom_site_fract_z
 _atom_site_occupancy
  La  La0  4  0.01031300  0.50608200  0.75000000  1.0
  Co  Co1  4  0.00000000  0.00000000  0.00000000  1.0
  O  O2  8  0.23645200  0.25473300  0.04237100  1.0
  O  O3  4  0.00174600  0.92677300  0.25000000  1.0
