# generated using pymatgen
data_La3Co
_symmetry_space_group_name_H-M   Pnma
_cell_length_a   6.53586800
_cell_length_b   7.05811100
_cell_length_c   10.04458700
_cell_angle_alpha   90.00000000
_cell_angle_beta   90.00000000
_cell_angle_gamma   90.00000000
_symmetry_Int_Tables_number   62
_chemical_formula_structural   La3Co
_chemical_formula_sum   'La12 Co4'
_cell_volume   463.36565588
_cell_formula_units_Z   4
loop_
 _symmetry_equiv_pos_site_id
 _symmetry_equiv_pos_as_xyz
  1  'x, y, z'
  2  '-x, -y, -z'
  3  'x+1/2, -y+1/2, -z'
  4  '-x+1/2, y+1/2, z'
  5  '-x+1/2, y+1/2, -z+1/2'
  6  'x+1/2, -y+1/2, z+1/2'
  7  '-x, -y, z+1/2'
  8  'x, y, -z+1/2'
loop_
 _atom_site_type_symbol
 _atom_site_label
 _atom_site_symmetry_multiplicity
 _atom_site_fract_x
 _atom_site_fract_y
 _atom_site_fract_z
 _atom_site_occupancy
  La  La0  8  0.17259700  0.33420000  0.57172000  1.0
  La  La1  4  0.14541000  0.05097400  0.25000000  1.0
  Co  Co2  4  0.06215900  0.61852800  0.75000000  1.0
