# generated using pymatgen
data_Na0.72Co1O2
_symmetry_space_group_name_H-M   R3m
_cell_length_a   3.01910088
_cell_length_b   3.01910088
_cell_length_c   5.74343614
_cell_angle_alpha   74.76192461
_cell_angle_beta   74.76192461
_cell_angle_gamma   59.99998076
_symmetry_Int_Tables_number   160
_chemical_formula_structural   Na0.72Co1O2
_chemical_formula_sum   'Na0.72 Co1 O2'
_cell_volume   43.19913659
_cell_formula_units_Z   1
loop_
 _symmetry_equiv_pos_site_id
 _symmetry_equiv_pos_as_xyz
  1  'x, y, z'
  2  '-x-y-z, x, z'
  3  'y, -x-y-z, z'
  4  'x, -x-y-z, z'
  5  '-x-y-z, y, z'
  6  'y, x, z'
loop_
 _atom_site_type_symbol
 _atom_site_label
 _atom_site_symmetry_multiplicity
 _atom_site_fract_x
 _atom_site_fract_y
 _atom_site_fract_z
 _atom_site_occupancy
  Na  Na0  1  0.83102500  0.83102500  0.50692500  0.72
  Co  Co1  1  0.00056500  0.00056500  0.99830500  1.0
  O  O2  1  0.39909400  0.39909400  0.80271800  1.0
  O  O3  1  0.60167200  0.60167200  0.19498400  1.0
