# generated using pymatgen
data_Na3(CoO2)5
_symmetry_space_group_name_H-M   P1
_cell_length_a   4.99797825
_cell_length_b   7.57914987
_cell_length_c   11.23695582
_cell_angle_alpha   86.95610698
_cell_angle_beta   81.38230032
_cell_angle_gamma   71.20807549
_symmetry_Int_Tables_number   1
_chemical_formula_structural   Na3(CoO2)5
_chemical_formula_sum   'Na6 Co10 O20'
_cell_volume   398.41590108
_cell_formula_units_Z   2
loop_
 _symmetry_equiv_pos_site_id
 _symmetry_equiv_pos_as_xyz
  1  'x, y, z'
loop_
 _atom_site_type_symbol
 _atom_site_label
 _atom_site_symmetry_multiplicity
 _atom_site_fract_x
 _atom_site_fract_y
 _atom_site_fract_z
 _atom_site_occupancy
  Na  Na0  1  0.00087600  0.19549000  0.24671700  1.0
  Na  Na1  1  0.17701500  0.79868200  0.25050000  1.0
  Na  Na2  1  0.39853300  0.39890700  0.25015700  1.0
  Na  Na3  1  0.47808600  0.19756800  0.74747600  1.0
  Na  Na4  1  0.68695400  0.80134000  0.74865300  1.0
  Na  Na5  1  0.87839300  0.40333700  0.74733000  1.0
  Co  Co6  1  0.00181000  0.00040000  0.99639800  1.0
  Co  Co7  1  0.09650800  0.80079200  0.50526800  1.0
  Co  Co8  1  0.19790600  0.60245100  0.99819800  1.0
  Co  Co9  1  0.29512900  0.40474100  0.50592900  1.0
  Co  Co10  1  0.40105800  0.20001700  0.00286300  1.0
  Co  Co11  1  0.50671200  0.99751900  0.49580200  1.0
  Co  Co12  1  0.59408700  0.80135600  0.00490900  1.0
  Co  Co13  1  0.69934300  0.60047100  0.49996100  1.0
  Co  Co14  1  0.79616100  0.40128000  0.00327300  1.0
  Co  Co15  1  0.90263500  0.19861900  0.50109900  1.0
  O  O16  1  0.09080600  0.19051900  0.90211800  1.0
  O  O17  1  0.12154300  0.39976900  0.09247500  1.0
  O  O18  1  0.19476800  0.00154300  0.41194700  1.0
  O  O19  1  0.20756900  0.19787600  0.58731300  1.0
  O  O20  1  0.29320000  0.99745300  0.09024000  1.0
  O  O21  1  0.29520600  0.80169800  0.91395600  1.0
  O  O22  1  0.38457000  0.60000900  0.41573200  1.0
  O  O23  1  0.40862700  0.80572600  0.58575300  1.0
  O  O24  1  0.47703300  0.60602200  0.09379300  1.0
  O  O25  1  0.47984400  0.40707800  0.90744700  1.0
  O  O26  1  0.61864800  0.19087300  0.40869200  1.0
  O  O27  1  0.62138900  0.39093400  0.59223600  1.0
  O  O28  1  0.69076300  0.00139100  0.91394200  1.0
  O  O29  1  0.72834700  0.19218700  0.09613300  1.0
  O  O30  1  0.79613300  0.80221500  0.41495200  1.0
  O  O31  1  0.79697100  0.00280100  0.58939200  1.0
  O  O32  1  0.89178200  0.60455100  0.91244000  1.0
  O  O33  1  0.90969300  0.80057900  0.08551400  1.0
  O  O34  1  0.98300600  0.60741200  0.59548900  1.0
  O  O35  1  0.99089700  0.39639200  0.40990500  1.0
