# generated using pymatgen
data_NbVCo
_symmetry_space_group_name_H-M   Amm2
_cell_length_a   4.83953703
_cell_length_b   4.83953703
_cell_length_c   8.10703900
_cell_angle_alpha   90.00000000
_cell_angle_beta   90.00000000
_cell_angle_gamma   118.52352288
_symmetry_Int_Tables_number   38
_chemical_formula_structural   NbVCo
_chemical_formula_sum   'Nb4 V4 Co4'
_cell_volume   166.82899948
_cell_formula_units_Z   4
loop_
 _symmetry_equiv_pos_site_id
 _symmetry_equiv_pos_as_xyz
  1  'x, y, z'
  2  '-y, -x, -z'
  3  'x, y, -z'
  4  '-y, -x, z'
loop_
 _atom_site_type_symbol
 _atom_site_label
 _atom_site_symmetry_multiplicity
 _atom_site_fract_x
 _atom_site_fract_y
 _atom_site_fract_z
 _atom_site_occupancy
  Nb  Nb0  2  0.33013000  0.66987000  0.31643300  1.0
  Nb  Nb1  2  0.66176300  0.33823700  0.19599400  1.0
  V  V2  2  0.16418500  0.33730100  0.00000000  1.0
  V  V3  1  0.17025400  0.82974600  0.00000000  1.0
  V  V4  1  0.83655600  0.16344400  0.50000000  1.0
  Co  Co5  2  0.34353900  0.16122100  0.50000000  1.0
  Co  Co6  2  0.99992800  0.00007200  0.74195500  1.0
