# generated using pymatgen
data_Na3(CoO2)5
_symmetry_space_group_name_H-M   Cm
_cell_length_a   4.98093049
_cell_length_b   9.25998664
_cell_length_c   9.25970180
_cell_angle_alpha   104.91666991
_cell_angle_beta   94.68986129
_cell_angle_gamma   94.68848444
_symmetry_Int_Tables_number   8
_chemical_formula_structural   Na3(CoO2)5
_chemical_formula_sum   'Na6 Co10 O20'
_cell_volume   408.96507948
_cell_formula_units_Z   2
loop_
 _symmetry_equiv_pos_site_id
 _symmetry_equiv_pos_as_xyz
  1  'x, y, z'
  2  'x, z+1/5, y+4/5'
loop_
 _atom_site_type_symbol
 _atom_site_label
 _atom_site_symmetry_multiplicity
 _atom_site_fract_x
 _atom_site_fract_y
 _atom_site_fract_z
 _atom_site_occupancy
  Na  Na0  2  0.07799100  0.04737300  0.45129000  1.0
  Na  Na1  2  0.57733800  0.15676400  0.35111700  1.0
  Na  Na2  1  0.09616300  0.84505800  0.64506100  1.0
  Na  Na3  1  0.59139700  0.35638500  0.15637400  1.0
  Co  Co4  2  0.00296400  0.00523600  0.00001100  1.0
  Co  Co5  2  0.49988100  0.29190100  0.70361500  1.0
  Co  Co6  2  0.50394300  0.50893900  0.51139000  1.0
  Co  Co7  2  0.99499000  0.38886700  0.59863700  1.0
  Co  Co8  1  0.49953200  0.09569700  0.89570100  1.0
  Co  Co9  1  0.99729300  0.58484700  0.38485500  1.0
  O  O10  2  0.18685900  0.57704600  0.59984800  1.0
  O  O11  2  0.20430600  0.00004100  0.17965200  1.0
  O  O12  2  0.29960800  0.10795600  0.71261600  1.0
  O  O13  2  0.31129100  0.28996300  0.52398300  1.0
  O  O14  2  0.69125800  0.08881000  0.08335900  1.0
  O  O15  2  0.69516300  0.47618500  0.71007700  1.0
  O  O16  2  0.78431000  0.39663100  0.40943100  1.0
  O  O17  2  0.80835000  0.20382600  0.61703600  1.0
  O  O18  1  0.19707100  0.18444800  0.98445700  1.0
  O  O19  1  0.30606000  0.50806200  0.30804200  1.0
  O  O20  1  0.71357600  0.69533200  0.49534300  1.0
  O  O21  1  0.81426400  0.01452200  0.81452000  1.0
