# generated using pymatgen
data_Na0.96Co2O4
_symmetry_space_group_name_H-M   R3m
_cell_length_a   2.99772030
_cell_length_b   2.99772030
_cell_length_c   11.25566450
_cell_angle_alpha   82.34747224
_cell_angle_beta   82.34747224
_cell_angle_gamma   59.99999332
_symmetry_Int_Tables_number   160
_chemical_formula_structural   Na0.96Co2O4
_chemical_formula_sum   'Na0.96 Co2 O4'
_cell_volume   86.55418659
_cell_formula_units_Z   1
loop_
 _symmetry_equiv_pos_site_id
 _symmetry_equiv_pos_as_xyz
  1  'x, y, z'
  2  '-x-y-z, x, z'
  3  'y, -x-y-z, z'
  4  'x, -x-y-z, z'
  5  '-x-y-z, y, z'
  6  'y, x, z'
loop_
 _atom_site_type_symbol
 _atom_site_label
 _atom_site_symmetry_multiplicity
 _atom_site_fract_x
 _atom_site_fract_y
 _atom_site_fract_z
 _atom_site_occupancy
  Na  Na0  1  0.58409500  0.58409500  0.24771500  0.96
  Co  Co1  1  0.00146600  0.00146600  0.99560200  1.0
  Co  Co2  1  0.49853000  0.49853000  0.50441000  1.0
  O  O3  1  0.19987100  0.19987100  0.40038700  1.0
  O  O4  1  0.29850400  0.29850400  0.10448800  1.0
  O  O5  1  0.69393300  0.69393300  0.91820100  1.0
  O  O6  1  0.80560100  0.80560100  0.58319700  1.0
