# generated using pymatgen
data_Na0.96Co2O4
_symmetry_space_group_name_H-M   P1
_cell_length_a   2.98498543
_cell_length_b   5.09287276
_cell_length_c   5.94013391
_cell_angle_alpha   70.69192348
_cell_angle_beta   87.43930846
_cell_angle_gamma   86.31372565
_symmetry_Int_Tables_number   1
_chemical_formula_structural   Na0.96Co2O4
_chemical_formula_sum   'Na0.96 Co2 O4'
_cell_volume   85.02105070
_cell_formula_units_Z   1
loop_
 _symmetry_equiv_pos_site_id
 _symmetry_equiv_pos_as_xyz
  1  'x, y, z'
loop_
 _atom_site_type_symbol
 _atom_site_label
 _atom_site_symmetry_multiplicity
 _atom_site_fract_x
 _atom_site_fract_y
 _atom_site_fract_z
 _atom_site_occupancy
  Na  Na0  1  0.00159000  0.15599800  0.49802900  0.96
  Co  Co1  1  0.51346800  0.50606800  0.98141000  1.0
  Co  Co2  1  0.99557500  0.98831800  0.02074400  1.0
  O  O3  1  0.06861300  0.58506100  0.17776500  1.0
  O  O4  1  0.50219900  0.11837300  0.18625700  1.0
  O  O5  1  0.50902300  0.89984700  0.82120000  1.0
  O  O6  1  0.94603200  0.40383600  0.80559400  1.0
