# generated using pymatgen
data_Na3(CoO2)5
_symmetry_space_group_name_H-M   P1
_cell_length_a   4.96360433
_cell_length_b   5.83148054
_cell_length_c   7.70968531
_cell_angle_alpha   84.38039966
_cell_angle_beta   71.29888940
_cell_angle_gamma   72.55964912
_symmetry_Int_Tables_number   1
_chemical_formula_structural   Na3(CoO2)5
_chemical_formula_sum   'Na3 Co5 O10'
_cell_volume   201.65876461
_cell_formula_units_Z   1
loop_
 _symmetry_equiv_pos_site_id
 _symmetry_equiv_pos_as_xyz
  1  'x, y, z'
loop_
 _atom_site_type_symbol
 _atom_site_label
 _atom_site_symmetry_multiplicity
 _atom_site_fract_x
 _atom_site_fract_y
 _atom_site_fract_z
 _atom_site_occupancy
  Na  Na0  1  0.56630000  0.49910700  0.19827800  1.0
  Na  Na1  1  0.76165100  0.49998550  0.79850850  1.0
  Na  Na2  1  0.96818800  0.49413150  0.40005900  1.0
  Co  Co3  1  0.20165100  0.98559850  0.59859450  1.0
  Co  Co4  1  0.39572900  0.00640700  0.20091900  1.0
  Co  Co5  1  0.58885300  0.02092200  0.79993900  1.0
  Co  Co6  1  0.79926900  0.00419750  0.39787700  1.0
  Co  Co7  1  0.99924900  0.99612200  0.00465700  1.0
  O  O8  1  0.18841900  0.81542150  0.39635200  1.0
  O  O9  1  0.19425900  0.17247850  0.80505450  1.0
  O  O10  1  0.39199600  0.82453100  0.00563050  1.0
  O  O11  1  0.40981200  0.18108250  0.39652450  1.0
  O  O12  1  0.60472600  0.81914500  0.58780450  1.0
  O  O13  1  0.62350100  0.18890500  0.00594050  1.0
  O  O14  1  0.80402900  0.82208550  0.20161300  1.0
  O  O15  1  0.81658600  0.18448500  0.59112200  1.0
  O  O16  1  0.98625100  0.82621850  0.80891850  1.0
  O  O17  1  0.99152900  0.18317400  0.20220700  1.0
