# generated using pymatgen
data_Na1.8Co3O6
_symmetry_space_group_name_H-M   Cmc2_1
_cell_length_a   5.16113400
_cell_length_b   5.92375020
_cell_length_c   5.92375020
_cell_angle_alpha   119.88893385
_cell_angle_beta   90.00000000
_cell_angle_gamma   90.00000000
_symmetry_Int_Tables_number   36
_chemical_formula_structural   Na1.8Co3O6
_chemical_formula_sum   'Na1.8 Co3 O6'
_cell_volume   157.01972205
_cell_formula_units_Z   1
loop_
 _symmetry_equiv_pos_site_id
 _symmetry_equiv_pos_as_xyz
  1  'x, y, z'
  2  'x+1/2, -y, -z'
  3  'x, z, y'
  4  'x+1/2, -z, -y'
loop_
 _atom_site_type_symbol
 _atom_site_label
 _atom_site_symmetry_multiplicity
 _atom_site_fract_x
 _atom_site_fract_y
 _atom_site_fract_z
 _atom_site_occupancy
  Na  Na0  2  0.00472900  0.32695900  0.32695900  0.9
  Co  Co1  4  0.49211600  0.32921500  0.99440200  0.75
  O  O2  4  0.11001100  0.33667900  0.94937100  1.0
  O  O3  2  0.03011800  0.71869000  0.71869000  1.0
