# generated using pymatgen
data_Na0.74Co1O2
_symmetry_space_group_name_H-M   R-3m
_cell_length_a   2.91987145
_cell_length_b   2.91987145
_cell_length_c   5.51386310
_cell_angle_alpha   74.64639311
_cell_angle_beta   74.64639311
_cell_angle_gamma   60.00001235
_symmetry_Int_Tables_number   166
_chemical_formula_structural   Na0.74Co1O2
_chemical_formula_sum   'Na0.74 Co1 O2'
_cell_volume   38.76181421
_cell_formula_units_Z   1
loop_
 _symmetry_equiv_pos_site_id
 _symmetry_equiv_pos_as_xyz
  1  'x, y, z'
  2  '-x, -y, -z'
  3  '-x-y-z, x, z'
  4  'x+y+z, -x, -z'
  5  'y, -x-y-z, z'
  6  '-y, x+y+z, -z'
  7  '-x, x+y+z, -z'
  8  'x, -x-y-z, z'
  9  'x+y+z, -y, -z'
  10  '-x-y-z, y, z'
  11  '-y, -x, -z'
  12  'y, x, z'
loop_
 _atom_site_type_symbol
 _atom_site_label
 _atom_site_symmetry_multiplicity
 _atom_site_fract_x
 _atom_site_fract_y
 _atom_site_fract_z
 _atom_site_occupancy
  Na  Na0  1  0.00000000  0.00000000  0.00000000  0.74
  Co  Co1  1  0.50000000  0.50000000  0.50000000  1.0
  O  O2  2  0.22992100  0.22992100  0.31023700  1.0
