# generated using pymatgen
data_CoO
_symmetry_space_group_name_H-M   P1
_cell_length_a   9.40253978
_cell_length_b   10.35649660
_cell_length_c   10.26154649
_cell_angle_alpha   91.20286495
_cell_angle_beta   92.72127600
_cell_angle_gamma   89.72974250
_symmetry_Int_Tables_number   1
_chemical_formula_structural   CoO
_chemical_formula_sum   'Co40 O40'
_cell_volume   997.88871660
_cell_formula_units_Z   40
loop_
 _symmetry_equiv_pos_site_id
 _symmetry_equiv_pos_as_xyz
  1  'x, y, z'
loop_
 _atom_site_type_symbol
 _atom_site_label
 _atom_site_symmetry_multiplicity
 _atom_site_fract_x
 _atom_site_fract_y
 _atom_site_fract_z
 _atom_site_occupancy
  Co  Co0  1  0.01441751  0.90626945  0.85224012  1.0
  Co  Co1  1  0.05462261  0.69789053  0.07794511  1.0
  Co  Co2  1  0.11303675  0.22367842  0.12985735  1.0
  Co  Co3  1  0.11933512  0.40858353  0.65682039  1.0
  Co  Co4  1  0.15253527  0.93602464  0.16886176  1.0
  Co  Co5  1  0.16243280  0.44463374  0.38096545  1.0
  Co  Co6  1  0.17795161  0.77434574  0.40021416  1.0
  Co  Co7  1  0.23587797  0.69434745  0.65819956  1.0
  Co  Co8  1  0.23813965  0.12235031  0.81678154  1.0
  Co  Co9  1  0.28073242  0.48588763  0.14072479  1.0
  Co  Co10  1  0.30408167  0.01850833  0.46986946  1.0
  Co  Co11  1  0.30654283  0.41304787  0.89534956  1.0
  Co  Co12  1  0.33661942  0.64825276  0.95098482  1.0
  Co  Co13  1  0.39453352  0.78290350  0.19508231  1.0
  Co  Co14  1  0.40182398  0.28077956  0.62337556  1.0
  Co  Co15  1  0.41659625  0.91830159  0.70043034  1.0
  Co  Co16  1  0.43370553  0.60186029  0.42852678  1.0
  Co  Co17  1  0.44703958  0.12788684  0.21560273  1.0
  Co  Co18  1  0.50584596  0.55177716  0.75011575  1.0
  Co  Co19  1  0.51171732  0.01943581  0.99494739  1.0
  Co  Co20  1  0.52695039  0.33314381  0.35999746  1.0
  Co  Co21  1  0.53645320  0.49569574  0.02791964  1.0
  Co  Co22  1  0.56988637  0.77307595  0.90956356  1.0
  Co  Co23  1  0.61063350  0.89325560  0.38405384  1.0
  Co  Co24  1  0.63563690  0.11309706  0.54123893  1.0
  Co  Co25  1  0.64049018  0.69937617  0.15364917  1.0
  Co  Co26  1  0.68212282  0.32105021  0.82342656  1.0
  Co  Co27  1  0.68839369  0.75545650  0.62356517  1.0
  Co  Co28  1  0.71042362  0.98575093  0.80026004  1.0
  Co  Co29  1  0.73597131  0.46995918  0.57700790  1.0
  Co  Co30  1  0.75454729  0.18243540  0.10624349  1.0
  Co  Co31  1  0.76516063  0.41580845  0.29576012  1.0
  Co  Co32  1  0.80773842  0.89845163  0.10048999  1.0
  Co  Co33  1  0.83401993  0.63998113  0.85948923  1.0
  Co  Co34  1  0.88140928  0.69156025  0.36492176  1.0
  Co  Co35  1  0.90668353  0.15790134  0.66080441  1.0
  Co  Co36  1  0.90746422  0.45426018  0.09221481  1.0
  Co  Co37  1  0.92579510  0.02160377  0.33758961  1.0
  Co  Co38  1  0.95239474  0.89134116  0.60225973  1.0
  Co  Co39  1  0.99093957  0.27671654  0.87889364  1.0
  O  O40  1  0.00170047  0.88328150  0.03279700  1.0
  O  O41  1  0.02873808  0.08731403  0.81017212  1.0
  O  O42  1  0.05692886  0.70788512  0.26740906  1.0
  O  O43  1  0.09948312  0.40838362  0.19334155  1.0
  O  O44  1  0.11425683  0.84021379  0.71815114  1.0
  O  O45  1  0.12907975  0.94751002  0.36429080  1.0
  O  O46  1  0.18828773  0.26971247  0.94594179  1.0
  O  O47  1  0.22447429  0.61242323  0.46457215  1.0
  O  O48  1  0.23016940  0.34071100  0.52355625  1.0
  O  O49  1  0.23435661  0.53323298  0.75368881  1.0
  O  O50  1  0.24893035  0.77252109  0.07152106  1.0
  O  O51  1  0.25443224  0.09346899  0.17084257  1.0
  O  O52  1  0.31398728  0.83229682  0.52438057  1.0
  O  O53  1  0.33299559  0.10379191  0.64284341  1.0
  O  O54  1  0.37007121  0.98774845  0.87426801  1.0
  O  O55  1  0.38638596  0.44802997  0.30378316  1.0
  O  O56  1  0.41906987  0.72934414  0.79086906  1.0
  O  O57  1  0.47404930  0.36335180  0.79621739  1.0
  O  O58  1  0.49158446  0.05499864  0.38421099  1.0
  O  O59  1  0.53535417  0.18819527  0.06663026  1.0
  O  O60  1  0.53715395  0.71760347  0.31391274  1.0
  O  O61  1  0.55019815  0.86631888  0.11307006  1.0
  O  O62  1  0.57112269  0.60059804  0.57470561  1.0
  O  O63  1  0.59130328  0.30753760  0.53398332  1.0
  O  O64  1  0.59830229  0.92339371  0.59809629  1.0
  O  O65  1  0.68885671  0.25386166  0.27608058  1.0
  O  O66  1  0.70419417  0.52191076  0.14746412  1.0
  O  O67  1  0.70804515  0.15544475  0.72751587  1.0
  O  O68  1  0.72028246  0.50406195  0.77327661  1.0
  O  O69  1  0.72684867  0.03236502  0.98783069  1.0
  O  O70  1  0.73972672  0.72833343  0.00760120  1.0
  O  O71  1  0.79514752  0.86778671  0.29291304  1.0
  O  O72  1  0.82348974  0.30705175  0.98224837  1.0
  O  O73  1  0.82874135  0.82819821  0.78481134  1.0
  O  O74  1  0.86015279  0.50390517  0.42434282  1.0
  O  O75  1  0.86229234  0.04436191  0.51458102  1.0
  O  O76  1  0.86692493  0.73812185  0.54151762  1.0
  O  O77  1  0.93978218  0.13264324  0.18664628  1.0
  O  O78  1  0.94614774  0.34002884  0.69734524  1.0
  O  O79  1  0.98845220  0.56270405  0.96399903  1.0
