# generated using pymatgen
data_CoO2
_symmetry_space_group_name_H-M   P3m1
_cell_length_a   5.65306600
_cell_length_b   5.65306620
_cell_length_c   13.99383900
_cell_angle_alpha   90.00000000
_cell_angle_beta   90.00000000
_cell_angle_gamma   119.99999881
_symmetry_Int_Tables_number   156
_chemical_formula_structural   CoO2
_chemical_formula_sum   'Co12 O24'
_cell_volume   387.28942361
_cell_formula_units_Z   12
loop_
 _symmetry_equiv_pos_site_id
 _symmetry_equiv_pos_as_xyz
  1  'x, y, z'
  2  '-y, x-y, z'
  3  '-x+y, -x, z'
  4  '-y, -x, z'
  5  '-x+y, y, z'
  6  'x, x-y, z'
loop_
 _atom_site_type_symbol
 _atom_site_label
 _atom_site_symmetry_multiplicity
 _atom_site_fract_x
 _atom_site_fract_y
 _atom_site_fract_z
 _atom_site_occupancy
  Co  Co0  3  0.01133000  0.50566500  0.50039800  1.0
  Co  Co1  3  0.16103200  0.32206400  0.16669600  1.0
  Co  Co2  3  0.33540000  0.16770000  0.83056700  1.0
  Co  Co3  1  0.33333333  0.66666667  0.95687300  1.0
  Co  Co4  1  0.66666667  0.33333333  0.28850000  1.0
  Co  Co5  1  0.66666667  0.33333333  0.66334900  1.0
  O  O6  3  0.00624100  0.50312000  0.23811300  1.0
  O  O7  3  0.16162200  0.32324400  0.90166100  1.0
  O  O8  3  0.18081100  0.36162200  0.43454500  1.0
  O  O9  3  0.29740500  0.14870300  0.09896000  1.0
  O  O10  3  0.37328300  0.18664200  0.57837900  1.0
  O  O11  3  0.52063200  0.04126400  0.75420700  1.0
  O  O12  1  0.00000000  0.00000000  0.23880400  1.0
  O  O13  1  0.00000000  0.00000000  0.76417100  1.0
  O  O14  1  0.33333333  0.66666667  0.09302600  1.0
  O  O15  1  0.33333333  0.66666667  0.57086100  1.0
  O  O16  1  0.66666667  0.33333333  0.42510700  1.0
  O  O17  1  0.66666667  0.33333333  0.90041300  1.0
