# generated using pymatgen
data_CoO
_symmetry_space_group_name_H-M   P1
_cell_length_a   10.01540327
_cell_length_b   10.08110670
_cell_length_c   10.17928995
_cell_angle_alpha   89.99872634
_cell_angle_beta   87.48147516
_cell_angle_gamma   84.67099091
_symmetry_Int_Tables_number   1
_chemical_formula_structural   CoO
_chemical_formula_sum   'Co40 O40'
_cell_volume   1022.32656198
_cell_formula_units_Z   40
loop_
 _symmetry_equiv_pos_site_id
 _symmetry_equiv_pos_as_xyz
  1  'x, y, z'
loop_
 _atom_site_type_symbol
 _atom_site_label
 _atom_site_symmetry_multiplicity
 _atom_site_fract_x
 _atom_site_fract_y
 _atom_site_fract_z
 _atom_site_occupancy
  Co  Co0  1  0.02036899  0.80776526  0.37376644  1.0
  Co  Co1  1  0.06033389  0.32671250  0.56725192  1.0
  Co  Co2  1  0.06203339  0.35077612  0.96940701  1.0
  Co  Co3  1  0.07429479  0.36348937  0.29643327  1.0
  Co  Co4  1  0.13111819  0.91684551  0.74141825  1.0
  Co  Co5  1  0.13884630  0.05065786  0.33677679  1.0
  Co  Co6  1  0.15659680  0.63612419  0.85139734  1.0
  Co  Co7  1  0.16042063  0.89474633  0.07093675  1.0
  Co  Co8  1  0.21914157  0.55341207  0.48192050  1.0
  Co  Co9  1  0.27374067  0.35686369  0.75893493  1.0
  Co  Co10  1  0.30454013  0.44328147  0.05163893  1.0
  Co  Co11  1  0.32120349  0.11077689  0.94444573  1.0
  Co  Co12  1  0.32794922  0.94253188  0.52869679  1.0
  Co  Co13  1  0.35400001  0.78246797  0.32058872  1.0
  Co  Co14  1  0.35747658  0.26587993  0.34735130  1.0
  Co  Co15  1  0.36714820  0.66060902  0.72429559  1.0
  Co  Co16  1  0.44726793  0.71401497  0.01130780  1.0
  Co  Co17  1  0.45115866  0.99088199  0.17182553  1.0
  Co  Co18  1  0.52314270  0.50490589  0.26946652  1.0
  Co  Co19  1  0.55464373  0.87600944  0.70857166  1.0
  Co  Co20  1  0.56611218  0.65936639  0.47545678  1.0
  Co  Co21  1  0.56643263  0.21916471  0.16012227  1.0
  Co  Co22  1  0.56687670  0.47767963  0.72627929  1.0
  Co  Co23  1  0.59747353  0.01763179  0.41196556  1.0
  Co  Co24  1  0.63540902  0.20548764  0.74568180  1.0
  Co  Co25  1  0.65165158  0.31442469  0.47129325  1.0
  Co  Co26  1  0.66037054  0.77408955  0.20734107  1.0
  Co  Co27  1  0.66306882  0.99747546  0.93469284  1.0
  Co  Co28  1  0.71142817  0.68918649  0.94177643  1.0
  Co  Co29  1  0.72056474  0.44859094  0.04377909  1.0
  Co  Co30  1  0.83317873  0.99834306  0.59275112  1.0
  Co  Co31  1  0.84522806  0.41818530  0.77478401  1.0
  Co  Co32  1  0.84666291  0.95599970  0.17486808  1.0
  Co  Co33  1  0.85274969  0.19315086  0.02581368  1.0
  Co  Co34  1  0.85313233  0.22863637  0.31975735  1.0
  Co  Co35  1  0.86900565  0.50791038  0.42598595  1.0
  Co  Co36  1  0.93195001  0.82302306  0.92988217  1.0
  Co  Co37  1  0.96506565  0.67753860  0.60033350  1.0
  Co  Co38  1  0.98038926  0.60021454  0.10013614  1.0
  Co  Co39  1  0.99913851  0.14465991  0.83004648  1.0
  O  O40  1  0.01815763  0.76120909  0.76283841  1.0
  O  O41  1  0.02252757  0.21360070  0.39853433  1.0
  O  O42  1  0.02897735  0.94215595  0.22433144  1.0
  O  O43  1  0.03566151  0.61531086  0.40343273  1.0
  O  O44  1  0.08194467  0.29621343  0.75490258  1.0
  O  O45  1  0.09150386  0.72991246  0.01152823  1.0
  O  O46  1  0.11391380  0.45308337  0.13996182  1.0
  O  O47  1  0.16275401  0.01482922  0.90958317  1.0
  O  O48  1  0.19584376  0.87387019  0.42542874  1.0
  O  O49  1  0.21171321  0.36444172  0.44412944  1.0
  O  O50  1  0.22560928  0.54571455  0.68162224  1.0
  O  O51  1  0.25230153  0.29237896  0.94779875  1.0
  O  O52  1  0.30421854  0.84853590  0.69877327  1.0
  O  O53  1  0.32533180  0.08079784  0.30601522  1.0
  O  O54  1  0.34109840  0.59044996  0.92232967  1.0
  O  O55  1  0.34240617  0.84059425  0.13407241  1.0
  O  O56  1  0.38762088  0.60479094  0.39390714  1.0
  O  O57  1  0.42769523  0.37299125  0.18223826  1.0
  O  O58  1  0.46412825  0.32343525  0.73421104  1.0
  O  O59  1  0.48894041  0.00146266  0.57503509  1.0
  O  O60  1  0.49724422  0.10748280  0.01379893  1.0
  O  O61  1  0.54746848  0.81958635  0.36445825  1.0
  O  O62  1  0.54924387  0.21445137  0.36158626  1.0
  O  O63  1  0.55189601  0.67410993  0.66175146  1.0
  O  O64  1  0.57069058  0.82792086  0.90494781  1.0
  O  O65  1  0.59492225  0.61467929  0.12243794  1.0
  O  O66  1  0.65352071  0.98096258  0.19579688  1.0
  O  O67  1  0.67592219  0.52217940  0.86907991  1.0
  O  O68  1  0.68035382  0.50041201  0.39415480  1.0
  O  O69  1  0.69751530  0.00784026  0.73675890  1.0
  O  O70  1  0.70786373  0.35065370  0.63581208  1.0
  O  O71  1  0.74992521  0.29047351  0.16499618  1.0
  O  O72  1  0.77423190  0.09554922  0.44626550  1.0
  O  O73  1  0.80180452  0.24007130  0.85204579  1.0
  O  O74  1  0.82643614  0.74817478  0.09097016  1.0
  O  O75  1  0.85560688  0.00080267  0.98311842  1.0
  O  O76  1  0.87604881  0.83045671  0.50913764  1.0
  O  O77  1  0.90524141  0.47785688  0.97186900  1.0
  O  O78  1  0.92788738  0.48953616  0.61024166  1.0
  O  O79  1  0.99779412  0.02973525  0.67105080  1.0
