# generated using pymatgen
data_CoO2
_symmetry_space_group_name_H-M   P1
_cell_length_a   10.38441456
_cell_length_b   10.64408271
_cell_length_c   10.71109132
_cell_angle_alpha   86.85424010
_cell_angle_beta   89.37578931
_cell_angle_gamma   88.80934639
_symmetry_Int_Tables_number   1
_chemical_formula_structural   CoO2
_chemical_formula_sum   'Co30 O60'
_cell_volume   1181.82878223
_cell_formula_units_Z   30
loop_
 _symmetry_equiv_pos_site_id
 _symmetry_equiv_pos_as_xyz
  1  'x, y, z'
loop_
 _atom_site_type_symbol
 _atom_site_label
 _atom_site_symmetry_multiplicity
 _atom_site_fract_x
 _atom_site_fract_y
 _atom_site_fract_z
 _atom_site_occupancy
  Co  Co0  1  0.02617946  0.62906141  0.39423836  1.0
  Co  Co1  1  0.05140615  0.95262921  0.28683455  1.0
  Co  Co2  1  0.06433363  0.09538822  0.54266822  1.0
  Co  Co3  1  0.08316054  0.35297208  0.46272006  1.0
  Co  Co4  1  0.14098120  0.19251098  0.91296315  1.0
  Co  Co5  1  0.15390550  0.38022829  0.71059353  1.0
  Co  Co6  1  0.18161811  0.78387713  0.54022904  1.0
  Co  Co7  1  0.20864677  0.67321297  0.90338693  1.0
  Co  Co8  1  0.21142752  0.78136544  0.17832258  1.0
  Co  Co9  1  0.21210327  0.92263175  0.76741637  1.0
  Co  Co10  1  0.36072026  0.18434533  0.68580825  1.0
  Co  Co11  1  0.37297111  0.36052613  0.28010884  1.0
  Co  Co12  1  0.40018817  0.46759298  0.75074551  1.0
  Co  Co13  1  0.42515932  0.84826592  0.37785194  1.0
  Co  Co14  1  0.44057884  0.74729691  0.62437661  1.0
  Co  Co15  1  0.48337758  0.53312371  0.01171204  1.0
  Co  Co16  1  0.55305512  0.04264935  0.51149148  1.0
  Co  Co17  1  0.56153341  0.09046873  0.05005224  1.0
  Co  Co18  1  0.56779851  0.94159719  0.81312121  1.0
  Co  Co19  1  0.59674891  0.34272306  0.50358029  1.0
  Co  Co20  1  0.62166351  0.29838850  0.81069336  1.0
  Co  Co21  1  0.63510645  0.61636107  0.79504539  1.0
  Co  Co22  1  0.68333878  0.81071718  0.01811911  1.0
  Co  Co23  1  0.71310487  0.96228866  0.28971265  1.0
  Co  Co24  1  0.71558606  0.66808973  0.31044555  1.0
  Co  Co25  1  0.79788029  0.21730620  0.07441054  1.0
  Co  Co26  1  0.82626099  0.22419195  0.59761098  1.0
  Co  Co27  1  0.84908891  0.04773216  0.82148626  1.0
  Co  Co28  1  0.95887166  0.59479830  0.69011952  1.0
  Co  Co29  1  0.96365970  0.47309136  0.93164232  1.0
  O  O30  1  0.01999049  0.44305548  0.61895711  1.0
  O  O31  1  0.02439321  0.69914850  0.56131932  1.0
  O  O32  1  0.04969769  0.34060219  0.84193677  1.0
  O  O33  1  0.05953049  0.59917807  0.83988243  1.0
  O  O34  1  0.11683033  0.78273730  0.34463565  1.0
  O  O35  1  0.12160932  0.05362166  0.39093899  1.0
  O  O36  1  0.13870349  0.23742481  0.18035598  1.0
  O  O37  1  0.14165205  0.49917428  0.39138307  1.0
  O  O38  1  0.14322016  0.94342351  0.14780978  1.0
  O  O39  1  0.14707844  0.94764050  0.60820989  1.0
  O  O40  1  0.18014643  0.24767431  0.59210625  1.0
  O  O41  1  0.18732942  0.66145737  0.07927271  1.0
  O  O42  1  0.18889149  0.30345241  0.27781227  1.0
  O  O43  1  0.19801783  0.26907326  0.07073862  1.0
  O  O44  1  0.20121789  0.84946837  0.91144642  1.0
  O  O45  1  0.24025782  0.08332380  0.79770920  1.0
  O  O46  1  0.26400497  0.76678414  0.71006370  1.0
  O  O47  1  0.26770748  0.49922761  0.64944232  1.0
  O  O48  1  0.30014744  0.31532557  0.79919705  1.0
  O  O49  1  0.33921746  0.72089031  0.47741385  1.0
  O  O50  1  0.34329515  0.56685146  0.89030049  1.0
  O  O51  1  0.37890683  0.78897503  0.23898709  1.0
  O  O52  1  0.39793683  0.16888222  0.49586400  1.0
  O  O53  1  0.39904770  0.11928417  0.12626910  1.0
  O  O54  1  0.41108893  0.16899133  0.23082155  1.0
  O  O55  1  0.42064452  0.43193265  0.12690675  1.0
  O  O56  1  0.42684891  0.28914729  0.44552955  1.0
  O  O57  1  0.43901401  0.90493037  0.53574577  1.0
  O  O58  1  0.50023726  0.58479043  0.66737595  1.0
  O  O59  1  0.50089906  0.05902036  0.69875810  1.0
  O  O60  1  0.51081922  0.32040466  0.67237236  1.0
  O  O61  1  0.51979941  0.47552173  0.36640442  1.0
  O  O62  1  0.53353936  0.93485706  0.98159012  1.0
  O  O63  1  0.53544820  0.97654306  0.33611055  1.0
  O  O64  1  0.55085288  0.44682666  0.86198503  1.0
  O  O65  1  0.56216953  0.78450095  0.73858444  1.0
  O  O66  1  0.58972576  0.54444290  0.28497779  1.0
  O  O67  1  0.60593606  0.65308453  0.97096196  1.0
  O  O68  1  0.63754748  0.23022322  0.97172786  1.0
  O  O69  1  0.64845493  0.71894350  0.46834524  1.0
  O  O70  1  0.66412476  0.17023587  0.49773715  1.0
  O  O71  1  0.69474953  0.80196782  0.20424746  1.0
  O  O72  1  0.70272616  0.33573293  0.20108944  1.0
  O  O73  1  0.70369103  0.08891223  0.16228498  1.0
  O  O74  1  0.72387083  0.91879794  0.48835507  1.0
  O  O75  1  0.73308960  0.79542513  0.52907524  1.0
  O  O76  1  0.74603426  0.38181938  0.56256405  1.0
  O  O77  1  0.74883893  0.91251938  0.85700314  1.0
  O  O78  1  0.75091620  0.19693092  0.75525267  1.0
  O  O79  1  0.75196665  0.33084596  0.30729736  1.0
  O  O80  1  0.80444535  0.57508824  0.77157573  1.0
  O  O81  1  0.86981425  0.59815761  0.33856140  1.0
  O  O82  1  0.87060352  0.71227029  0.00804913  1.0
  O  O83  1  0.88484696  0.96425186  0.29975717  1.0
  O  O84  1  0.88546882  0.59702993  0.04580142  1.0
  O  O85  1  0.89159433  0.06876190  0.00997609  1.0
  O  O86  1  0.89348041  0.34279466  0.03179656  1.0
  O  O87  1  0.92768108  0.08903296  0.65633336  1.0
  O  O88  1  0.95575743  0.23414337  0.47052097  1.0
  O  O89  1  0.99800941  0.07302068  0.92239722  1.0
