# generated using pymatgen
data_CoO2
_symmetry_space_group_name_H-M   Cmmm
_cell_length_a   2.65941000
_cell_length_b   3.32974500
_cell_length_c   26.10282727
_cell_angle_alpha   90.00000000
_cell_angle_beta   92.91997004
_cell_angle_gamma   90.00000000
_symmetry_Int_Tables_number   65
_chemical_formula_structural   CoO2
_chemical_formula_sum   'Co1 O2'
_cell_volume   230.84453384
_cell_formula_units_Z   1
loop_
 _symmetry_equiv_pos_site_id
 _symmetry_equiv_pos_as_xyz
  1  'x, y, z'
  2  '-x, -y, -z'
  3  '-x, y, -z'
  4  'x, -y, z'
  5  'x-z, -y, -z'
  6  '-x+z, y, z'
  7  '-x+z, -y, z'
  8  'x-z, y, -z'
loop_
 _atom_site_type_symbol
 _atom_site_label
 _atom_site_symmetry_multiplicity
 _atom_site_fract_x
 _atom_site_fract_y
 _atom_site_fract_z
 _atom_site_occupancy
  Co  Co0  1  0.00000000  0.50000000  0.00000000  1.0
  O  O1  2  0.47692400  0.50000000  0.95384800  1.0
