# generated using pymatgen
data_CoO2
_symmetry_space_group_name_H-M   Fmm2
_cell_length_a   2.74420985
_cell_length_b   2.74420985
_cell_length_c   9.16538743
_cell_angle_alpha   94.39670156
_cell_angle_beta   94.39670166
_cell_angle_gamma   119.20367165
_symmetry_Int_Tables_number   42
_chemical_formula_structural   CoO2
_chemical_formula_sum   'Co1 O2'
_cell_volume   59.55291933
_cell_formula_units_Z   1
loop_
 _symmetry_equiv_pos_site_id
 _symmetry_equiv_pos_as_xyz
  1  'x, y, z'
  2  '-y, -x, -z'
  3  '-y+z, -x+z, z'
  4  'x-z, y-z, -z'
loop_
 _atom_site_type_symbol
 _atom_site_label
 _atom_site_symmetry_multiplicity
 _atom_site_fract_x
 _atom_site_fract_y
 _atom_site_fract_z
 _atom_site_occupancy
  Co  Co0  1  0.98788500  0.01211500  0.00000000  1.0
  O  O1  2  0.62014500  0.25563000  0.87577500  1.0
