# generated using pymatgen
data_CoO2
_symmetry_space_group_name_H-M   P6_3mc
_cell_length_a   5.61003800
_cell_length_b   5.61003850
_cell_length_c   8.55168500
_cell_angle_alpha   90.00000000
_cell_angle_beta   90.00000000
_cell_angle_gamma   119.99999706
_symmetry_Int_Tables_number   186
_chemical_formula_structural   CoO2
_chemical_formula_sum   'Co8 O16'
_cell_volume   233.08481690
_cell_formula_units_Z   8
loop_
 _symmetry_equiv_pos_site_id
 _symmetry_equiv_pos_as_xyz
  1  'x, y, z'
  2  'x-y, x, z+1/2'
  3  '-y, x-y, z'
  4  '-x, -y, z+1/2'
  5  '-x+y, -x, z'
  6  'y, -x+y, z+1/2'
  7  'y, x, z+1/2'
  8  'x, x-y, z'
  9  'x-y, -y, z+1/2'
  10  '-y, -x, z'
  11  '-x, -x+y, z+1/2'
  12  '-x+y, y, z'
loop_
 _atom_site_type_symbol
 _atom_site_label
 _atom_site_symmetry_multiplicity
 _atom_site_fract_x
 _atom_site_fract_y
 _atom_site_fract_z
 _atom_site_occupancy
  Co  Co0  6  0.16735800  0.33471600  0.28890500  1.0
  Co  Co1  2  0.33333333  0.66666667  0.01458900  1.0
  O  O2  6  0.04156700  0.52078400  0.15906900  1.0
  O  O3  6  0.16362700  0.32725400  0.89802700  1.0
  O  O4  2  0.00000000  0.00000000  0.18153600  1.0
  O  O5  2  0.33333333  0.66666667  0.40096500  1.0
