# generated using pymatgen
data_CoO2
_symmetry_space_group_name_H-M   R-3m
_cell_length_a   2.82539656
_cell_length_b   2.82539656
_cell_length_c   10.51260660
_cell_angle_alpha   82.27715103
_cell_angle_beta   82.27715103
_cell_angle_gamma   59.99998694
_symmetry_Int_Tables_number   166
_chemical_formula_structural   CoO2
_chemical_formula_sum   'Co2 O4'
_cell_volume   71.79718386
_cell_formula_units_Z   2
loop_
 _symmetry_equiv_pos_site_id
 _symmetry_equiv_pos_as_xyz
  1  'x, y, z'
  2  '-x, -y, -z'
  3  '-x-y-z, x, z'
  4  'x+y+z, -x, -z'
  5  'y, -x-y-z, z'
  6  '-y, x+y+z, -z'
  7  '-x, x+y+z, -z'
  8  'x, -x-y-z, z'
  9  'x+y+z, -y, -z'
  10  '-x-y-z, y, z'
  11  '-y, -x, -z'
  12  'y, x, z'
loop_
 _atom_site_type_symbol
 _atom_site_label
 _atom_site_symmetry_multiplicity
 _atom_site_fract_x
 _atom_site_fract_y
 _atom_site_fract_z
 _atom_site_occupancy
  Co  Co0  1  0.00000000  0.00000000  0.00000000  1.0
  Co  Co1  1  0.50000000  0.50000000  0.50000000  1.0
  O  O2  2  0.19729400  0.19729400  0.40811800  1.0
  O  O3  2  0.36355300  0.36355300  0.90934100  1.0
