# generated using pymatgen
data_CoO2
_symmetry_space_group_name_H-M   Cm
_cell_length_a   3.15959400
_cell_length_b   3.16792862
_cell_length_c   17.92785904
_cell_angle_alpha   91.35142251
_cell_angle_beta   89.99999999
_cell_angle_gamma   119.91300739
_symmetry_Int_Tables_number   8
_chemical_formula_structural   CoO2
_chemical_formula_sum   'Co1 O2'
_cell_volume   155.48372550
_cell_formula_units_Z   1
loop_
 _symmetry_equiv_pos_site_id
 _symmetry_equiv_pos_as_xyz
  1  'x, y, z'
  2  '-x+y+1/2, y, z'
loop_
 _atom_site_type_symbol
 _atom_site_label
 _atom_site_symmetry_multiplicity
 _atom_site_fract_x
 _atom_site_fract_y
 _atom_site_fract_z
 _atom_site_occupancy
  Co  Co0  1  0.19981500  0.89962900  0.52092300  1.0
  O  O1  1  0.18282900  0.86565900  0.42610000  1.0
  O  O2  1  0.86735500  0.23471000  0.55297800  1.0
