# generated using pymatgen
data_CoO
_symmetry_space_group_name_H-M   P1
_cell_length_a   10.03293133
_cell_length_b   10.21236637
_cell_length_c   10.26261537
_cell_angle_alpha   84.06978760
_cell_angle_beta   89.90617072
_cell_angle_gamma   86.16193491
_symmetry_Int_Tables_number   1
_chemical_formula_structural   CoO
_chemical_formula_sum   'Co40 O40'
_cell_volume   1043.51966217
_cell_formula_units_Z   40
loop_
 _symmetry_equiv_pos_site_id
 _symmetry_equiv_pos_as_xyz
  1  'x, y, z'
loop_
 _atom_site_type_symbol
 _atom_site_label
 _atom_site_symmetry_multiplicity
 _atom_site_fract_x
 _atom_site_fract_y
 _atom_site_fract_z
 _atom_site_occupancy
  Co  Co0  1  0.02451738  0.56180908  0.82938046  1.0
  Co  Co1  1  0.02597113  0.92499822  0.47800258  1.0
  Co  Co2  1  0.05082303  0.37761489  0.12825954  1.0
  Co  Co3  1  0.05515065  0.10888424  0.64646505  1.0
  Co  Co4  1  0.15262752  0.82104037  0.73181512  1.0
  Co  Co5  1  0.15791459  0.02103530  0.97129656  1.0
  Co  Co6  1  0.15800821  0.24212131  0.40200824  1.0
  Co  Co7  1  0.22552947  0.68297717  0.01535362  1.0
  Co  Co8  1  0.23693662  0.26933201  0.76089537  1.0
  Co  Co9  1  0.26701430  0.72967837  0.40394680  1.0
  Co  Co10  1  0.27866267  0.46484970  0.29614116  1.0
  Co  Co11  1  0.34601533  0.60316282  0.71634732  1.0
  Co  Co12  1  0.36612735  0.04590735  0.22693457  1.0
  Co  Co13  1  0.37393802  0.95205762  0.48665284  1.0
  Co  Co14  1  0.38599198  0.90566456  0.81182638  1.0
  Co  Co15  1  0.39120211  0.44641540  0.00638583  1.0
  Co  Co16  1  0.39373300  0.25399367  0.51316965  1.0
  Co  Co17  1  0.45869790  0.14964786  0.97992445  1.0
  Co  Co18  1  0.47756854  0.75747912  0.20709890  1.0
  Co  Co19  1  0.53295112  0.52016423  0.47799667  1.0
  Co  Co20  1  0.53348610  0.35985782  0.77414832  1.0
  Co  Co21  1  0.55133835  0.74957752  0.65189097  1.0
  Co  Co22  1  0.56040498  0.27198357  0.26571145  1.0
  Co  Co23  1  0.56122421  0.00696372  0.66159077  1.0
  Co  Co24  1  0.56841009  0.67599325  0.92297775  1.0
  Co  Co25  1  0.63835562  0.54369278  0.18968676  1.0
  Co  Co26  1  0.65732542  0.94214818  0.10324608  1.0
  Co  Co27  1  0.67653136  0.03875710  0.36170048  1.0
  Co  Co28  1  0.70772998  0.06636151  0.88530068  1.0
  Co  Co29  1  0.70953826  0.23300673  0.62780233  1.0
  Co  Co30  1  0.71105837  0.75025798  0.43366150  1.0
  Co  Co31  1  0.73305291  0.39689919  0.98762183  1.0
  Co  Co32  1  0.77850365  0.55439296  0.66041386  1.0
  Co  Co33  1  0.82204972  0.86746615  0.75931181  1.0
  Co  Co34  1  0.86672580  0.71154192  0.03291898  1.0
  Co  Co35  1  0.87238259  0.11463278  0.10487323  1.0
  Co  Co36  1  0.88696149  0.26201284  0.43027236  1.0
  Co  Co37  1  0.93939285  0.28509104  0.82490605  1.0
  Co  Co38  1  0.96695470  0.86090151  0.22356927  1.0
  Co  Co39  1  0.98146433  0.57009164  0.36928164  1.0
  O  O40  1  0.00687458  0.37554306  0.31962901  1.0
  O  O41  1  0.01171172  0.98515633  0.08605916  1.0
  O  O42  1  0.02403695  0.11113970  0.45237218  1.0
  O  O43  1  0.04301704  0.64918642  0.98072955  1.0
  O  O44  1  0.09335312  0.15609731  0.82535104  1.0
  O  O45  1  0.10634425  0.84665949  0.34443307  1.0
  O  O46  1  0.16325290  0.62978248  0.72641449  1.0
  O  O47  1  0.17527131  0.57637339  0.39032566  1.0
  O  O48  1  0.20732367  0.27978007  0.58243722  1.0
  O  O49  1  0.22665938  0.85239798  0.90467947  1.0
  O  O50  1  0.22980341  0.44426874  0.12013808  1.0
  O  O51  1  0.28204614  0.95337075  0.64868170  1.0
  O  O52  1  0.29627820  0.09293236  0.05984789  1.0
  O  O53  1  0.32976778  0.12986650  0.39175918  1.0
  O  O54  1  0.36932274  0.30881616  0.87872833  1.0
  O  O55  1  0.38221380  0.86568007  0.32103924  1.0
  O  O56  1  0.41705393  0.67447215  0.05922025  1.0
  O  O57  1  0.41786513  0.66826201  0.55016490  1.0
  O  O58  1  0.44433327  0.39307632  0.37567263  1.0
  O  O59  1  0.48065827  0.53637162  0.84190254  1.0
  O  O60  1  0.52241288  0.00457579  0.87039063  1.0
  O  O61  1  0.52546568  0.20166359  0.64457046  1.0
  O  O62  1  0.55513178  0.09570334  0.18237609  1.0
  O  O63  1  0.56462642  0.39962919  0.11376239  1.0
  O  O64  1  0.60364698  0.90784738  0.49791419  1.0
  O  O65  1  0.60549757  0.64199352  0.33291407  1.0
  O  O66  1  0.64819447  0.42373173  0.61716204  1.0
  O  O67  1  0.66682845  0.25071517  0.89694866  1.0
  O  O68  1  0.70105113  0.71884362  0.75648014  1.0
  O  O69  1  0.70299761  0.21740438  0.40233235  1.0
  O  O70  1  0.72708055  0.58614437  0.02853828  1.0
  O  O71  1  0.74791593  0.05209651  0.69815071  1.0
  O  O72  1  0.77414494  0.88124222  0.95561943  1.0
  O  O73  1  0.80054975  0.97521174  0.23340350  1.0
  O  O74  1  0.85438319  0.63474246  0.50226739  1.0
  O  O75  1  0.87501450  0.46720915  0.81687292  1.0
  O  O76  1  0.89176992  0.26055561  0.63280982  1.0
  O  O77  1  0.90078325  0.69943663  0.22548322  1.0
  O  O78  1  0.91274162  0.29068388  0.04307722  1.0
  O  O79  1  0.98601009  0.90653731  0.66167971  1.0
