# generated using pymatgen
data_CoO2
_symmetry_space_group_name_H-M   Cmce
_cell_length_a   2.85526651
_cell_length_b   2.85526651
_cell_length_c   16.74571900
_cell_angle_alpha   90.00000000
_cell_angle_beta   90.00000000
_cell_angle_gamma   114.43099907
_symmetry_Int_Tables_number   64
_chemical_formula_structural   CoO2
_chemical_formula_sum   'Co2 O4'
_cell_volume   124.29623779
_cell_formula_units_Z   2
loop_
 _symmetry_equiv_pos_site_id
 _symmetry_equiv_pos_as_xyz
  1  'x, y, z'
  2  '-x, -y, -z'
  3  '-x+1/2, -y+1/2, z+1/2'
  4  'x+1/2, y+1/2, -z+1/2'
  5  'y, x, -z'
  6  '-y, -x, z'
  7  '-y+1/2, -x+1/2, -z+1/2'
  8  'y+1/2, x+1/2, z+1/2'
loop_
 _atom_site_type_symbol
 _atom_site_label
 _atom_site_symmetry_multiplicity
 _atom_site_fract_x
 _atom_site_fract_y
 _atom_site_fract_z
 _atom_site_occupancy
  Co  Co0  2  0.00000000  0.00000000  0.00000000  1.0
  O  O1  4  0.18965000  0.81035000  0.44153700  1.0
