# generated using pymatgen
data_CoO2
_symmetry_space_group_name_H-M   Imma
_cell_length_a   5.53834297
_cell_length_b   5.53834297
_cell_length_c   5.53834297
_cell_angle_alpha   85.27306785
_cell_angle_beta   63.19131176
_cell_angle_gamma   117.81253406
_symmetry_Int_Tables_number   74
_chemical_formula_structural   CoO2
_chemical_formula_sum   'Co4 O8'
_cell_volume   124.53609834
_cell_formula_units_Z   4
loop_
 _symmetry_equiv_pos_site_id
 _symmetry_equiv_pos_as_xyz
  1  'x, y, z'
  2  '-x, -y, -z'
  3  '-x+1/2, -x-z, x-y+1/2'
  4  'x+1/2, x+z, -x+y+1/2'
  5  'y+z, x+z, -z'
  6  '-y-z, -x-z, z'
  7  '-y-z+1/2, -y, -x+y+1/2'
  8  'y+z+1/2, y, x-y+1/2'
loop_
 _atom_site_type_symbol
 _atom_site_label
 _atom_site_symmetry_multiplicity
 _atom_site_fract_x
 _atom_site_fract_y
 _atom_site_fract_z
 _atom_site_occupancy
  Co  Co0  2  0.00000000  0.00000000  0.50000000  1.0
  Co  Co1  2  0.25000000  0.86262700  0.88737300  1.0
  O  O2  4  0.01069500  0.76604300  0.74465100  1.0
  O  O3  4  0.03694200  0.25268900  0.71037000  1.0
