# generated using pymatgen
data_CoO2
_symmetry_space_group_name_H-M   Cmcm
_cell_length_a   2.90550800
_cell_length_b   4.87616328
_cell_length_c   9.32042300
_cell_angle_alpha   90.00000000
_cell_angle_beta   90.00000000
_cell_angle_gamma   107.33330015
_symmetry_Int_Tables_number   63
_chemical_formula_structural   CoO2
_chemical_formula_sum   'Co4 O8'
_cell_volume   126.05260347
_cell_formula_units_Z   4
loop_
 _symmetry_equiv_pos_site_id
 _symmetry_equiv_pos_as_xyz
  1  'x, y, z'
  2  '-x, -y, -z'
  3  '-x, -y, z+1/2'
  4  'x, y, -z+1/2'
  5  'x-y, -y, -z'
  6  '-x+y, y, z'
  7  '-x+y, y, -z+1/2'
  8  'x-y, -y, z+1/2'
loop_
 _atom_site_type_symbol
 _atom_site_label
 _atom_site_symmetry_multiplicity
 _atom_site_fract_x
 _atom_site_fract_y
 _atom_site_fract_z
 _atom_site_occupancy
  Co  Co0  4  0.13476200  0.26952400  0.07264200  1.0
  O  O1  4  0.23568000  0.47136000  0.60310800  1.0
  O  O2  2  0.06664200  0.13328400  0.25000000  1.0
  O  O3  2  0.50000000  0.00000000  0.00000000  1.0
