# generated using pymatgen
data_CoO2
_symmetry_space_group_name_H-M   P1
_cell_length_a   10.55379356
_cell_length_b   10.90110038
_cell_length_c   10.61236031
_cell_angle_alpha   87.14653096
_cell_angle_beta   87.00557363
_cell_angle_gamma   87.19206682
_symmetry_Int_Tables_number   1
_chemical_formula_structural   CoO2
_chemical_formula_sum   'Co30 O60'
_cell_volume   1216.43391533
_cell_formula_units_Z   30
loop_
 _symmetry_equiv_pos_site_id
 _symmetry_equiv_pos_as_xyz
  1  'x, y, z'
loop_
 _atom_site_type_symbol
 _atom_site_label
 _atom_site_symmetry_multiplicity
 _atom_site_fract_x
 _atom_site_fract_y
 _atom_site_fract_z
 _atom_site_occupancy
  Co  Co0  1  0.01379743  0.72541908  0.77117649  1.0
  Co  Co1  1  0.02574759  0.67404459  0.20382864  1.0
  Co  Co2  1  0.07172693  0.42557463  0.22139749  1.0
  Co  Co3  1  0.08987198  0.17021863  0.36911788  1.0
  Co  Co4  1  0.11696610  0.89268651  0.37657566  1.0
  Co  Co5  1  0.11932091  0.49766940  0.49560504  1.0
  Co  Co6  1  0.25383392  0.89116286  0.77785747  1.0
  Co  Co7  1  0.25683608  0.24437977  0.58581503  1.0
  Co  Co8  1  0.28186288  0.72629075  0.55823601  1.0
  Co  Co9  1  0.28540910  0.66582705  0.99666712  1.0
  Co  Co10  1  0.32052285  0.49132683  0.74477881  1.0
  Co  Co11  1  0.32097232  0.36669193  0.03059039  1.0
  Co  Co12  1  0.32996848  0.04946043  0.17432897  1.0
  Co  Co13  1  0.38276274  0.75766446  0.26634900  1.0
  Co  Co14  1  0.40013247  0.17508680  0.82185896  1.0
  Co  Co15  1  0.50359389  0.89815920  0.92862268  1.0
  Co  Co16  1  0.54554026  0.63500317  0.09641409  1.0
  Co  Co17  1  0.56410713  0.39477219  0.27187939  1.0
  Co  Co18  1  0.57974397  0.11508441  0.36896064  1.0
  Co  Co19  1  0.59232344  0.67957316  0.72087056  1.0
  Co  Co20  1  0.64002102  0.32954815  0.90381586  1.0
  Co  Co21  1  0.69036446  0.21876761  0.64280798  1.0
  Co  Co22  1  0.75504594  0.06963597  0.99049182  1.0
  Co  Co23  1  0.76194173  0.78756849  0.94475885  1.0
  Co  Co24  1  0.76396713  0.90097717  0.66422754  1.0
  Co  Co25  1  0.84212375  0.65992819  0.52200013  1.0
  Co  Co26  1  0.85967505  0.98160090  0.26404839  1.0
  Co  Co27  1  0.86162857  0.46643877  0.71698903  1.0
  Co  Co28  1  0.86529583  0.52596804  0.98530416  1.0
  Co  Co29  1  0.99589528  0.97766652  0.94230293  1.0
  O  O30  1  0.00891972  0.29407017  0.10949113  1.0
  O  O31  1  0.02332081  0.32373656  0.35654316  1.0
  O  O32  1  0.10725336  0.55496647  0.32940551  1.0
  O  O33  1  0.11350647  0.96037948  0.06924157  1.0
  O  O34  1  0.11785016  0.98387813  0.81081941  1.0
  O  O35  1  0.13566243  0.16011860  0.53662768  1.0
  O  O36  1  0.13702704  0.79433817  0.52113004  1.0
  O  O37  1  0.14972804  0.71736357  0.08864359  1.0
  O  O38  1  0.19550005  0.74593768  0.82852234  1.0
  O  O39  1  0.20959995  0.14336325  0.24660502  1.0
  O  O40  1  0.21723358  0.01601241  0.03667202  1.0
  O  O41  1  0.22116561  0.57562577  0.61196771  1.0
  O  O42  1  0.22837273  0.39351957  0.17451373  1.0
  O  O43  1  0.24228254  0.37230633  0.48134129  1.0
  O  O44  1  0.27257470  0.89161071  0.27977864  1.0
  O  O45  1  0.28959996  0.50424476  0.92564759  1.0
  O  O46  1  0.30982821  0.31199720  0.72233780  1.0
  O  O47  1  0.34232201  0.21382894  0.99039378  1.0
  O  O48  1  0.34910136  0.84323272  0.64247164  1.0
  O  O49  1  0.37828673  0.62208276  0.16058093  1.0
  O  O50  1  0.38190098  0.11027400  0.57105955  1.0
  O  O51  1  0.39356139  0.70775767  0.43651406  1.0
  O  O52  1  0.39402973  0.98918451  0.82894546  1.0
  O  O53  1  0.43658048  0.96493502  0.08407948  1.0
  O  O54  1  0.44891549  0.10667620  0.28098408  1.0
  O  O55  1  0.46173623  0.72318209  0.96056573  1.0
  O  O56  1  0.46539088  0.58894806  0.71405938  1.0
  O  O57  1  0.47130533  0.45712196  0.43615325  1.0
  O  O58  1  0.48380143  0.37615999  0.11197614  1.0
  O  O59  1  0.50429192  0.13055080  0.53984463  1.0
  O  O60  1  0.51946001  0.42774378  0.53883852  1.0
  O  O61  1  0.54778495  0.76155484  0.19326409  1.0
  O  O62  1  0.54899467  0.44943408  0.01568734  1.0
  O  O63  1  0.56622762  0.24919901  0.78090054  1.0
  O  O64  1  0.61721947  0.53852704  0.22251923  1.0
  O  O65  1  0.63378788  0.81270224  0.55857980  1.0
  O  O66  1  0.63826091  0.26617875  0.36212745  1.0
  O  O67  1  0.65344303  0.81664275  0.79652015  1.0
  O  O68  1  0.66018489  0.19708888  0.02472626  1.0
  O  O69  1  0.66237311  0.92891837  0.99681159  1.0
  O  O70  1  0.69657529  0.75953611  0.46566013  1.0
  O  O71  1  0.70691607  0.00070273  0.33847856  1.0
  O  O72  1  0.71796306  0.64533736  0.01916007  1.0
  O  O73  1  0.73532832  0.59249505  0.65176977  1.0
  O  O74  1  0.73918467  0.05428908  0.61996918  1.0
  O  O75  1  0.77430565  0.42304567  0.87621966  1.0
  O  O76  1  0.77458814  0.49311197  0.42460387  1.0
  O  O77  1  0.81427849  0.33633233  0.64996779  1.0
  O  O78  1  0.82149530  0.45645637  0.32323611  1.0
  O  O79  1  0.87047434  0.08070348  0.86632032  1.0
  O  O80  1  0.88317869  0.00288564  0.09514824  1.0
  O  O81  1  0.89090568  0.70392545  0.33321039  1.0
  O  O82  1  0.89636289  0.78772709  0.63140519  1.0
  O  O83  1  0.92683654  0.81789872  0.90920716  1.0
  O  O84  1  0.94988290  0.56169726  0.81594903  1.0
  O  O85  1  0.95795424  0.81339044  0.30053578  1.0
  O  O86  1  0.96412022  0.53113689  0.57143079  1.0
  O  O87  1  0.97132036  0.53764907  0.12548200  1.0
  O  O88  1  0.97575978  0.32831906  0.99963511  1.0
  O  O89  1  0.99862529  0.02956428  0.35408754  1.0
