# generated using pymatgen
data_CoO2
_symmetry_space_group_name_H-M   P1
_cell_length_a   9.80269464
_cell_length_b   10.68183861
_cell_length_c   10.70738491
_cell_angle_alpha   85.08723669
_cell_angle_beta   86.50252259
_cell_angle_gamma   87.36653339
_symmetry_Int_Tables_number   1
_chemical_formula_structural   CoO2
_chemical_formula_sum   'Co30 O60'
_cell_volume   1114.04420253
_cell_formula_units_Z   30
loop_
 _symmetry_equiv_pos_site_id
 _symmetry_equiv_pos_as_xyz
  1  'x, y, z'
loop_
 _atom_site_type_symbol
 _atom_site_label
 _atom_site_symmetry_multiplicity
 _atom_site_fract_x
 _atom_site_fract_y
 _atom_site_fract_z
 _atom_site_occupancy
  Co  Co0  1  0.02747800  0.55673300  0.63296700  1.0
  Co  Co1  1  0.05993500  0.47756400  0.90053000  1.0
  Co  Co2  1  0.10831300  0.74478400  0.40146200  1.0
  Co  Co3  1  0.15852200  0.96091800  0.86184800  1.0
  Co  Co4  1  0.18091900  0.75661500  0.72028600  1.0
  Co  Co5  1  0.23348800  0.61278200  0.18439200  1.0
  Co  Co6  1  0.23872500  0.30437700  0.21434000  1.0
  Co  Co7  1  0.24603600  0.92515600  0.17182800  1.0
  Co  Co8  1  0.27015200  0.07176000  0.39507000  1.0
  Co  Co9  1  0.38291300  0.11778100  0.03055400  1.0
  Co  Co10  1  0.40986300  0.72108900  0.87296000  1.0
  Co  Co11  1  0.44438200  0.43503100  0.05218100  1.0
  Co  Co12  1  0.48628100  0.83585600  0.56218200  1.0
  Co  Co13  1  0.48882400  0.57445700  0.53397100  1.0
  Co  Co14  1  0.49921800  0.33623200  0.32778500  1.0
  Co  Co15  1  0.51520800  0.72526600  0.23276900  1.0
  Co  Co16  1  0.51779200  0.28306100  0.74779100  1.0
  Co  Co17  1  0.56874900  0.99611100  0.87232200  1.0
  Co  Co18  1  0.63546200  0.04984400  0.54909700  1.0
  Co  Co19  1  0.67376100  0.25242400  0.03612900  1.0
  Co  Co20  1  0.69406100  0.01696100  0.18613200  1.0
  Co  Co21  1  0.71871300  0.42552600  0.53411100  1.0
  Co  Co22  1  0.73406700  0.59112500  0.98584500  1.0
  Co  Co23  1  0.76420600  0.64698700  0.72032800  1.0
  Co  Co24  1  0.76902000  0.75105200  0.48800900  1.0
  Co  Co25  1  0.79707000  0.90857100  0.73795200  1.0
  Co  Co26  1  0.83462600  0.34567800  0.80043000  1.0
  Co  Co27  1  0.90777700  0.19907700  0.26256800  1.0
  Co  Co28  1  0.93701300  0.19045400  0.56101300  1.0
  Co  Co29  1  0.97726200  0.97151900  0.43536100  1.0
  O  O30  1  0.06761400  0.25318200  0.19811700  1.0
  O  O31  1  0.07993900  0.09207200  0.48429400  1.0
  O  O32  1  0.08562000  0.12811100  0.82409600  1.0
  O  O33  1  0.08835400  0.90479800  0.72277500  1.0
  O  O34  1  0.11442900  0.60606000  0.31660200  1.0
  O  O35  1  0.11675100  0.52373500  0.07009900  1.0
  O  O36  1  0.12464400  0.70266000  0.56485900  1.0
  O  O37  1  0.12899800  0.59281500  0.76656500  1.0
  O  O38  1  0.14022700  0.32561400  0.53816300  1.0
  O  O39  1  0.14260000  0.91599400  0.33579200  1.0
  O  O40  1  0.15088500  0.44275800  0.52875900  1.0
  O  O41  1  0.22230800  0.79153800  0.88251500  1.0
  O  O42  1  0.22697500  0.32632500  0.83552500  1.0
  O  O43  1  0.23776700  0.00297800  0.00742500  1.0
  O  O44  1  0.32322700  0.36487600  0.76091100  1.0
  O  O45  1  0.32416200  0.25201500  0.35964400  1.0
  O  O46  1  0.32540800  0.75951700  0.16580300  1.0
  O  O47  1  0.33045200  0.28706600  0.05246400  1.0
  O  O48  1  0.33212900  0.06316800  0.20992900  1.0
  O  O49  1  0.34666100  0.46567300  0.20709500  1.0
  O  O50  1  0.37559200  0.95466300  0.50946400  1.0
  O  O51  1  0.37673200  0.73541700  0.68626700  1.0
  O  O52  1  0.40887200  0.55835800  0.93125000  1.0
  O  O53  1  0.43959300  0.68886400  0.41020900  1.0
  O  O54  1  0.44295000  0.13625800  0.86019000  1.0
  O  O55  1  0.49564000  0.84967300  0.92851200  1.0
  O  O56  1  0.54587100  0.44657500  0.64888900  1.0
  O  O57  1  0.55883000  0.17996500  0.61411700  1.0
  O  O58  1  0.56590000  0.10231400  0.29854400  1.0
  O  O59  1  0.56600700  0.34391400  0.14796200  1.0
  O  O60  1  0.58014300  0.08222100  0.04824400  1.0
  O  O61  1  0.59481900  0.45480000  0.41348900  1.0
  O  O62  1  0.59903600  0.94105200  0.69607500  1.0
  O  O63  1  0.61434900  0.62598800  0.10456000  1.0
  O  O64  1  0.61468000  0.69790700  0.58788600  1.0
  O  O65  1  0.61598700  0.16490600  0.38597800  1.0
  O  O66  1  0.62233500  0.87569400  0.20825200  1.0
  O  O67  1  0.64456000  0.90055500  0.46416600  1.0
  O  O68  1  0.67233000  0.27679100  0.86492600  1.0
  O  O69  1  0.71786000  0.68069000  0.33358300  1.0
  O  O70  1  0.74137300  0.51252200  0.83173000  1.0
  O  O71  1  0.74939700  0.74040400  0.85093500  1.0
  O  O72  1  0.77117800  0.00501100  0.85589000  1.0
  O  O73  1  0.80013000  0.15328200  0.12922100  1.0
  O  O74  1  0.80846600  0.40060300  0.04986800  1.0
  O  O75  1  0.80933600  0.30675600  0.63375000  1.0
  O  O76  1  0.81425400  0.61866600  0.28140100  1.0
  O  O77  1  0.83802900  0.02864500  0.57692600  1.0
  O  O78  1  0.84330000  0.56936100  0.56413700  1.0
  O  O79  1  0.85028800  0.78588900  0.64027600  1.0
  O  O80  1  0.85438600  0.03991300  0.30992900  1.0
  O  O81  1  0.87214100  0.87135800  0.07559000  1.0
  O  O82  1  0.87823400  0.27174200  0.40141500  1.0
  O  O83  1  0.91045000  0.35951100  0.96529600  1.0
  O  O84  1  0.92338200  0.81422000  0.40686700  1.0
  O  O85  1  0.93318200  0.62759700  0.98905400  1.0
  O  O86  1  0.97324300  0.15006500  0.76316900  1.0
  O  O87  1  0.98918400  0.58831100  0.10133800  1.0
  O  O88  1  0.99091600  0.90656900  0.06691300  1.0
  O  O89  1  0.99101600  0.41874600  0.74739500  1.0
