# generated using pymatgen
data_CoO2
_symmetry_space_group_name_H-M   C2/c
_cell_length_a   2.90954981
_cell_length_b   2.91087237
_cell_length_c   14.07799055
_cell_angle_alpha   85.14677145
_cell_angle_beta   84.71270021
_cell_angle_gamma   60.77688003
_symmetry_Int_Tables_number   15
_chemical_formula_structural   CoO2
_chemical_formula_sum   'Co2 O4'
_cell_volume   103.50554000
_cell_formula_units_Z   2
loop_
 _symmetry_equiv_pos_site_id
 _symmetry_equiv_pos_as_xyz
  1  'x, y, z'
  2  '-x, -y, -z'
  3  '-y+1/2, -x+1/2, -z+1/2'
  4  'y+1/2, x+1/2, z+1/2'
loop_
 _atom_site_type_symbol
 _atom_site_label
 _atom_site_symmetry_multiplicity
 _atom_site_fract_x
 _atom_site_fract_y
 _atom_site_fract_z
 _atom_site_occupancy
  Co  Co0  2  0.00000700  0.99999100  0.00000900  1.0
  O  O1  4  0.17234700  0.21813600  0.43144100  1.0
