# generated using pymatgen
data_CoO2
_symmetry_space_group_name_H-M   R3m
_cell_length_a   5.65996058
_cell_length_b   5.65996058
_cell_length_c   5.71091036
_cell_angle_alpha   60.29469077
_cell_angle_beta   60.29469077
_cell_angle_gamma   59.99999322
_symmetry_Int_Tables_number   160
_chemical_formula_structural   CoO2
_chemical_formula_sum   'Co4 O8'
_cell_volume   129.93833539
_cell_formula_units_Z   4
loop_
 _symmetry_equiv_pos_site_id
 _symmetry_equiv_pos_as_xyz
  1  'x, y, z'
  2  '-x-y-z, x, z'
  3  'y, -x-y-z, z'
  4  'x, -x-y-z, z'
  5  '-x-y-z, y, z'
  6  'y, x, z'
loop_
 _atom_site_type_symbol
 _atom_site_label
 _atom_site_symmetry_multiplicity
 _atom_site_fract_x
 _atom_site_fract_y
 _atom_site_fract_z
 _atom_site_occupancy
  Co  Co0  3  0.50469100  0.50469100  0.00233800  1.0
  Co  Co1  1  0.12219100  0.12219100  0.63342700  1.0
  O  O2  3  0.24065800  0.24065800  0.78818100  1.0
  O  O3  3  0.30049500  0.74838900  0.20272700  1.0
  O  O4  1  0.25967400  0.25967400  0.22097800  1.0
  O  O5  1  0.73638200  0.73638200  0.79085400  1.0
