# generated using pymatgen
data_CoO2
_symmetry_space_group_name_H-M   Pnma
_cell_length_a   2.86917000
_cell_length_b   8.30860100
_cell_length_c   9.92563400
_cell_angle_alpha   90.00000000
_cell_angle_beta   90.00000000
_cell_angle_gamma   90.00000000
_symmetry_Int_Tables_number   62
_chemical_formula_structural   CoO2
_chemical_formula_sum   'Co8 O16'
_cell_volume   236.61509195
_cell_formula_units_Z   8
loop_
 _symmetry_equiv_pos_site_id
 _symmetry_equiv_pos_as_xyz
  1  'x, y, z'
  2  '-x, -y, -z'
  3  '-x, -y+1/2, z+1/2'
  4  'x, y+1/2, -z+1/2'
  5  '-x+1/2, y+1/2, -z+1/2'
  6  'x+1/2, -y+1/2, z+1/2'
  7  'x+1/2, -y, -z'
  8  '-x+1/2, y, z'
loop_
 _atom_site_type_symbol
 _atom_site_label
 _atom_site_symmetry_multiplicity
 _atom_site_fract_x
 _atom_site_fract_y
 _atom_site_fract_z
 _atom_site_occupancy
  Co  Co0  4  0.25000000  0.05255800  0.88418100  1.0
  Co  Co1  4  0.25000000  0.08783400  0.39863700  1.0
  O  O2  4  0.25000000  0.08605000  0.06889800  1.0
  O  O3  4  0.25000000  0.30596000  0.35193100  1.0
  O  O4  4  0.25000000  0.38427700  0.02217100  1.0
  O  O5  4  0.25000000  0.46335000  0.78598000  1.0
