# generated using pymatgen
data_CoO2
_symmetry_space_group_name_H-M   P1
_cell_length_a   10.29001624
_cell_length_b   10.74344722
_cell_length_c   10.45380826
_cell_angle_alpha   86.33894899
_cell_angle_beta   84.88021603
_cell_angle_gamma   90.06368174
_symmetry_Int_Tables_number   1
_chemical_formula_structural   CoO2
_chemical_formula_sum   'Co30 O60'
_cell_volume   1148.68433348
_cell_formula_units_Z   30
loop_
 _symmetry_equiv_pos_site_id
 _symmetry_equiv_pos_as_xyz
  1  'x, y, z'
loop_
 _atom_site_type_symbol
 _atom_site_label
 _atom_site_symmetry_multiplicity
 _atom_site_fract_x
 _atom_site_fract_y
 _atom_site_fract_z
 _atom_site_occupancy
  Co  Co0  1  0.00001237  0.95801395  0.82473223  1.0
  Co  Co1  1  0.00768766  0.07606958  0.56563835  1.0
  Co  Co2  1  0.01201350  0.08521273  0.07961720  1.0
  Co  Co3  1  0.04420203  0.76762021  0.57179125  1.0
  Co  Co4  1  0.07998265  0.45949322  0.48309735  1.0
  Co  Co5  1  0.12485936  0.37563761  0.02521423  1.0
  Co  Co6  1  0.18264926  0.25906051  0.71586188  1.0
  Co  Co7  1  0.20019133  0.50942437  0.22928437  1.0
  Co  Co8  1  0.22997306  0.82505394  0.01203341  1.0
  Co  Co9  1  0.25584713  0.72348597  0.39450060  1.0
  Co  Co10  1  0.25681327  0.75384662  0.72830560  1.0
  Co  Co11  1  0.26899996  0.52900998  0.88267585  1.0
  Co  Co12  1  0.27148430  0.00456702  0.18052068  1.0
  Co  Co13  1  0.33461059  0.00476047  0.80649587  1.0
  Co  Co14  1  0.33671506  0.16884609  0.38173915  1.0
  Co  Co15  1  0.37111955  0.38052857  0.49893443  1.0
  Co  Co16  1  0.37402494  0.25152125  0.95468134  1.0
  Co  Co17  1  0.50184720  0.53084156  0.66375847  1.0
  Co  Co18  1  0.50973677  0.82540801  0.20136343  1.0
  Co  Co19  1  0.55446161  0.01648962  0.98783515  1.0
  Co  Co20  1  0.57354307  0.24266348  0.74675641  1.0
  Co  Co21  1  0.58216275  0.88216597  0.75219963  1.0
  Co  Co22  1  0.61857155  0.16110323  0.20457190  1.0
  Co  Co23  1  0.62217051  0.37414120  0.33503643  1.0
  Co  Co24  1  0.75374321  0.76519642  0.00333903  1.0
  Co  Co25  1  0.78426136  0.44160174  0.06838984  1.0
  Co  Co26  1  0.82492591  0.91720929  0.42470912  1.0
  Co  Co27  1  0.85287639  0.23837735  0.91782291  1.0
  Co  Co28  1  0.89349481  0.30686576  0.26685277  1.0
  Co  Co29  1  0.97432732  0.64325925  0.89173913  1.0
  O  O30  1  0.01753449  0.24897438  0.98421096  1.0
  O  O31  1  0.04649393  0.41441212  0.18080920  1.0
  O  O32  1  0.07590650  0.50732324  0.91147544  1.0
  O  O33  1  0.07665266  0.12001278  0.70917167  1.0
  O  O34  1  0.07948746  0.69014681  0.74004846  1.0
  O  O35  1  0.11128462  0.63474315  0.46918467  1.0
  O  O36  1  0.12926669  0.94761160  0.10241630  1.0
  O  O37  1  0.15532743  0.40250581  0.63041977  1.0
  O  O38  1  0.18154237  0.90843243  0.84225905  1.0
  O  O39  1  0.22437443  0.80778255  0.54691575  1.0
  O  O40  1  0.22715143  0.17547206  0.21464529  1.0
  O  O41  1  0.23308855  0.67351770  0.23200538  1.0
  O  O42  1  0.24863547  0.34962592  0.86902802  1.0
  O  O43  1  0.25020249  0.42020705  0.37536257  1.0
  O  O44  1  0.25547796  0.26845523  0.11816121  1.0
  O  O45  1  0.26412571  0.48104534  0.05484434  1.0
  O  O46  1  0.27111536  0.12526659  0.90257649  1.0
  O  O47  1  0.27439505  0.69513719  0.92088343  1.0
  O  O48  1  0.30623302  0.21764667  0.54778688  1.0
  O  O49  1  0.32918963  0.01324964  0.33901760  1.0
  O  O50  1  0.33704646  0.58161076  0.71434145  1.0
  O  O51  1  0.38581823  0.90144523  0.07997632  1.0
  O  O52  1  0.39990135  0.87305597  0.71966946  1.0
  O  O53  1  0.41691561  0.78389750  0.34838977  1.0
  O  O54  1  0.48662879  0.15627665  0.05086904  1.0
  O  O55  1  0.48961229  0.26235091  0.29752664  1.0
  O  O56  1  0.49264213  0.35718886  0.62385069  1.0
  O  O57  1  0.49811283  0.49617284  0.40549260  1.0
  O  O58  1  0.50031840  0.34423889  0.88194901  1.0
  O  O59  1  0.50562351  0.05885096  0.81718454  1.0
  O  O60  1  0.55024352  0.68562228  0.81697834  1.0
  O  O61  1  0.55227734  0.57579771  0.48937387  1.0
  O  O62  1  0.60976856  0.99475699  0.15480151  1.0
  O  O63  1  0.62120216  0.72181209  0.12173786  1.0
  O  O64  1  0.65510133  0.77648072  0.60608577  1.0
  O  O65  1  0.65649939  0.89386475  0.92158075  1.0
  O  O66  1  0.65888699  0.14244049  0.59949087  1.0
  O  O67  1  0.66284981  0.62063407  0.82224983  1.0
  O  O68  1  0.66415665  0.80679171  0.48496800  1.0
  O  O69  1  0.66785395  0.52615416  0.73921809  1.0
  O  O70  1  0.70763492  0.03785105  0.63328028  1.0
  O  O71  1  0.71369151  0.01071151  0.36894296  1.0
  O  O72  1  0.71918005  0.23700951  0.33957864  1.0
  O  O73  1  0.73341645  0.20788877  0.82145726  1.0
  O  O74  1  0.74521167  0.27352638  0.09075230  1.0
  O  O75  1  0.77333810  0.45240540  0.25154635  1.0
  O  O76  1  0.79904429  0.43194037  0.55133175  1.0
  O  O77  1  0.83770330  0.40868285  0.90765007  1.0
  O  O78  1  0.84075916  0.60891408  0.02354758  1.0
  O  O79  1  0.84919767  0.88184382  0.14984974  1.0
  O  O80  1  0.85395997  0.82279544  0.25694611  1.0
  O  O81  1  0.88879954  0.51000897  0.52591822  1.0
  O  O82  1  0.90310889  0.77549395  0.49535546  1.0
  O  O83  1  0.90825231  0.80156846  0.89801435  1.0
  O  O84  1  0.91023688  0.05840654  0.93492629  1.0
  O  O85  1  0.93961238  0.23446033  0.53045326  1.0
  O  O86  1  0.94712969  0.14629774  0.22293785  1.0
  O  O87  1  0.97872187  0.01226836  0.42315036  1.0
  O  O88  1  0.98950782  0.91952253  0.65335785  1.0
  O  O89  1  0.99860947  0.30131817  0.42242843  1.0
