# generated using pymatgen
data_CoO2
_symmetry_space_group_name_H-M   P1
_cell_length_a   10.34004715
_cell_length_b   10.51729408
_cell_length_c   11.11235052
_cell_angle_alpha   91.79972501
_cell_angle_beta   92.76085391
_cell_angle_gamma   97.38571031
_symmetry_Int_Tables_number   1
_chemical_formula_structural   CoO2
_chemical_formula_sum   'Co30 O60'
_cell_volume   1196.18059444
_cell_formula_units_Z   30
loop_
 _symmetry_equiv_pos_site_id
 _symmetry_equiv_pos_as_xyz
  1  'x, y, z'
loop_
 _atom_site_type_symbol
 _atom_site_label
 _atom_site_symmetry_multiplicity
 _atom_site_fract_x
 _atom_site_fract_y
 _atom_site_fract_z
 _atom_site_occupancy
  Co  Co0  1  0.02185000  0.19568800  0.90823400  1.0
  Co  Co1  1  0.03823100  0.59604900  0.10522900  1.0
  Co  Co2  1  0.13057100  0.12580900  0.69048200  1.0
  Co  Co3  1  0.13444300  0.91399100  0.49336400  1.0
  Co  Co4  1  0.22229000  0.60513900  0.54855200  1.0
  Co  Co5  1  0.25331200  0.35973000  0.09023200  1.0
  Co  Co6  1  0.25636800  0.10743400  0.97898200  1.0
  Co  Co7  1  0.27586300  0.75501800  0.29747400  1.0
  Co  Co8  1  0.32642600  0.78577600  0.05243300  1.0
  Co  Co9  1  0.37048200  0.83380100  0.59373000  1.0
  Co  Co10  1  0.43559100  0.09563800  0.61358200  1.0
  Co  Co11  1  0.43651100  0.27285000  0.82653400  1.0
  Co  Co12  1  0.45828100  0.63548500  0.80343700  1.0
  Co  Co13  1  0.47853500  0.94844900  0.89674600  1.0
  Co  Co14  1  0.54632100  0.42909300  0.23766500  1.0
  Co  Co15  1  0.61148900  0.49465800  0.98207100  1.0
  Co  Co16  1  0.61948700  0.15782100  0.35120600  1.0
  Co  Co17  1  0.66980500  0.92637400  0.27735500  1.0
  Co  Co18  1  0.67596000  0.21743900  0.89638800  1.0
  Co  Co19  1  0.71300400  0.24628300  0.61623400  1.0
  Co  Co20  1  0.73772000  0.71316600  0.09946000  1.0
  Co  Co21  1  0.75501500  0.86985100  0.49243200  1.0
  Co  Co22  1  0.79883700  0.93192700  0.81265100  1.0
  Co  Co23  1  0.80261800  0.56563300  0.56663100  1.0
  Co  Co24  1  0.80330900  0.33756600  0.16112500  1.0
  Co  Co25  1  0.94876700  0.12466700  0.30658800  1.0
  Co  Co26  1  0.96077100  0.42524700  0.42069300  1.0
  Co  Co27  1  0.97342200  0.84930500  0.24461100  1.0
  Co  Co28  1  0.99015800  0.77809200  0.67309900  1.0
  Co  Co29  1  0.99563800  0.42607100  0.70088900  1.0
  O  O30  1  0.00258300  0.01899600  0.19938700  1.0
  O  O31  1  0.00601700  0.58634500  0.91946300  1.0
  O  O32  1  0.05208600  0.26410400  0.75430700  1.0
  O  O33  1  0.06628800  0.95783100  0.63379200  1.0
  O  O34  1  0.07341000  0.54543100  0.29507900  1.0
  O  O35  1  0.07780400  0.51861100  0.86069700  1.0
  O  O36  1  0.08811500  0.08823300  0.44010200  1.0
  O  O37  1  0.09499400  0.17883300  0.52989700  1.0
  O  O38  1  0.09928400  0.46624300  0.55041400  1.0
  O  O39  1  0.10817000  0.74835400  0.56103100  1.0
  O  O40  1  0.12395600  0.07500500  0.85159000  1.0
  O  O41  1  0.12934200  0.84799100  0.33713500  1.0
  O  O42  1  0.13034700  0.20102100  0.05382400  1.0
  O  O43  1  0.15989400  0.48320600  0.08327800  1.0
  O  O44  1  0.17385800  0.73236400  0.11790100  1.0
  O  O45  1  0.19443600  0.57606500  0.33770400  1.0
  O  O46  1  0.32578400  0.97438800  0.51044200  1.0
  O  O47  1  0.32645500  0.19657100  0.69927700  1.0
  O  O48  1  0.32789600  0.95847200  0.98828700  1.0
  O  O49  1  0.32812100  0.28159200  0.95513800  1.0
  O  O50  1  0.33533200  0.68261000  0.68086800  1.0
  O  O51  1  0.33914600  0.72502000  0.46106200  1.0
  O  O52  1  0.35175200  0.36349200  0.48384700  1.0
  O  O53  1  0.36789800  0.45780100  0.55449600  1.0
  O  O54  1  0.38084300  0.36782300  0.21423800  1.0
  O  O55  1  0.41149700  0.77469900  0.20545700  1.0
  O  O56  1  0.43008200  0.76304200  0.92481200  1.0
  O  O57  1  0.43053600  0.95046500  0.71409600  1.0
  O  O58  1  0.48558400  0.46539600  0.86329000  1.0
  O  O59  1  0.50563700  0.13110000  0.91681300  1.0
  O  O60  1  0.55642500  0.03542000  0.23528300  1.0
  O  O61  1  0.56571900  0.17552400  0.51097400  1.0
  O  O62  1  0.59603000  0.88063200  0.41788500  1.0
  O  O63  1  0.60102100  0.25455000  0.74652300  1.0
  O  O64  1  0.60393500  0.55060600  0.37273600  1.0
  O  O65  1  0.60946200  0.65325300  0.69564900  1.0
  O  O66  1  0.61285000  0.56063200  0.13422700  1.0
  O  O67  1  0.63366200  0.50197800  0.47466300  1.0
  O  O68  1  0.63466600  0.92781500  0.86304700  1.0
  O  O69  1  0.66011200  0.34354400  0.02733200  1.0
  O  O70  1  0.66639200  0.31529100  0.27479100  1.0
  O  O71  1  0.67578300  0.55567200  0.69150600  1.0
  O  O72  1  0.68505000  0.86510500  0.12356300  1.0
  O  O73  1  0.69273200  0.64111500  0.93865500  1.0
  O  O74  1  0.76625300  0.98405700  0.64158700  1.0
  O  O75  1  0.76992500  0.12393500  0.00552100  1.0
  O  O76  1  0.77806800  0.08017200  0.36276300  1.0
  O  O77  1  0.81490500  0.11487900  0.63098500  1.0
  O  O78  1  0.81779500  0.84227400  0.32932700  1.0
  O  O79  1  0.81930600  0.74442300  0.57000900  1.0
  O  O80  1  0.83180300  0.32295400  0.85831900  1.0
  O  O81  1  0.83322400  0.38550400  0.57925100  1.0
  O  O82  1  0.86644600  0.07501700  0.93953900  1.0
  O  O83  1  0.87692700  0.56342800  0.42300900  1.0
  O  O84  1  0.89637000  0.47641400  0.12100100  1.0
  O  O85  1  0.92094100  0.71931300  0.12700500  1.0
  O  O86  1  0.92728600  0.32152900  0.94853900  1.0
  O  O87  1  0.93069800  0.82656800  0.80568900  1.0
  O  O88  1  0.93660300  0.59660300  0.67781400  1.0
  O  O89  1  0.93763400  0.29872200  0.29605800  1.0
