# generated using pymatgen
data_Sc3Co
_symmetry_space_group_name_H-M   Pnma
_cell_length_a   5.81424700
_cell_length_b   8.59064400
_cell_length_c   13.01675600
_cell_angle_alpha   90.00000000
_cell_angle_beta   90.00000000
_cell_angle_gamma   90.00000000
_symmetry_Int_Tables_number   62
_chemical_formula_structural   Sc3Co
_chemical_formula_sum   'Sc24 Co8'
_cell_volume   650.16257017
_cell_formula_units_Z   8
loop_
 _symmetry_equiv_pos_site_id
 _symmetry_equiv_pos_as_xyz
  1  'x, y, z'
  2  '-x, -y, -z'
  3  'x+1/2, -y, -z+1/2'
  4  '-x+1/2, y, z+1/2'
  5  '-x+1/2, -y+1/2, z+1/2'
  6  'x+1/2, y+1/2, -z+1/2'
  7  '-x, y+1/2, -z'
  8  'x, -y+1/2, z'
loop_
 _atom_site_type_symbol
 _atom_site_label
 _atom_site_symmetry_multiplicity
 _atom_site_fract_x
 _atom_site_fract_y
 _atom_site_fract_z
 _atom_site_occupancy
  Sc  Sc0  8  0.09247600  0.56731200  0.28738100  1.0
  Sc  Sc1  8  0.24490200  0.56430700  0.53542700  1.0
  Sc  Sc2  4  0.04762600  0.25000000  0.14600900  1.0
  Sc  Sc3  4  0.21353100  0.25000000  0.89094400  1.0
  Co  Co4  4  0.05386400  0.25000000  0.55951400  1.0
  Co  Co5  4  0.12739800  0.75000000  0.67983500  1.0
