# generated using pymatgen
data_CoTe
_symmetry_space_group_name_H-M   R-3
_cell_length_a   6.61332305
_cell_length_b   6.61332305
_cell_length_c   6.61332280
_cell_angle_alpha   61.35721123
_cell_angle_beta   61.35721123
_cell_angle_gamma   61.35721799
_symmetry_Int_Tables_number   148
_chemical_formula_structural   CoTe
_chemical_formula_sum   'Co5 Te5'
_cell_volume   210.76118943
_cell_formula_units_Z   5
loop_
 _symmetry_equiv_pos_site_id
 _symmetry_equiv_pos_as_xyz
  1  'x, y, z'
  2  '-x, -y, -z'
  3  'z, x, y'
  4  '-z, -x, -y'
  5  'y, z, x'
  6  '-y, -z, -x'
loop_
 _atom_site_type_symbol
 _atom_site_label
 _atom_site_symmetry_multiplicity
 _atom_site_fract_x
 _atom_site_fract_y
 _atom_site_fract_z
 _atom_site_occupancy
  Co  Co0  2  0.16221200  0.16221200  0.16221200  1.0
  Co  Co1  2  0.33281900  0.33281900  0.33281900  1.0
  Co  Co2  1  0.50000000  0.50000000  0.50000000  1.0
  Te  Te3  6  0.08284500  0.75147700  0.42258300  0.8333333333333334
