# generated using pymatgen
data_Y3Co
_symmetry_space_group_name_H-M   P2_1
_cell_length_a   6.33830200
_cell_length_b   7.01268704
_cell_length_c   9.49634700
_cell_angle_alpha   90.00000000
_cell_angle_beta   90.00000000
_cell_angle_gamma   89.99419091
_symmetry_Int_Tables_number   4
_chemical_formula_structural   Y3Co
_chemical_formula_sum   'Y12 Co4'
_cell_volume   422.09864612
_cell_formula_units_Z   4
loop_
 _symmetry_equiv_pos_site_id
 _symmetry_equiv_pos_as_xyz
  1  'x, y, z'
  2  '-x, -y, z+1/2'
loop_
 _atom_site_type_symbol
 _atom_site_label
 _atom_site_symmetry_multiplicity
 _atom_site_fract_x
 _atom_site_fract_y
 _atom_site_fract_z
 _atom_site_occupancy
  Y  Y0  2  0.14158800  0.54619400  0.48786800  1.0
  Y  Y1  2  0.16721300  0.82590800  0.16854900  1.0
  Y  Y2  2  0.17641900  0.82495500  0.80391200  1.0
  Y  Y3  2  0.31450700  0.32284700  0.16856900  1.0
  Y  Y4  2  0.32679200  0.32897100  0.80535900  1.0
  Y  Y5  2  0.36680800  0.04289200  0.48934400  1.0
  Co  Co6  2  0.04208800  0.11013800  0.98754300  1.0
  Co  Co7  2  0.45649000  0.61160100  0.00001300  1.0
