# generated using pymatgen
data_Zr6Co1.59493671
_symmetry_space_group_name_H-M   Cmcm
_cell_length_a   3.26787800
_cell_length_b   5.64053185
_cell_length_c   9.05434500
_cell_angle_alpha   90.00000000
_cell_angle_beta   90.00000000
_cell_angle_gamma   106.83869010
_symmetry_Int_Tables_number   63
_chemical_formula_structural   Zr6Co1.59493671
_chemical_formula_sum   'Zr6 Co1.59493671'
_cell_volume   159.73908151
_cell_formula_units_Z   1
loop_
 _symmetry_equiv_pos_site_id
 _symmetry_equiv_pos_as_xyz
  1  'x, y, z'
  2  '-x, -y, -z'
  3  '-x, -y, z+1/2'
  4  'x, y, -z+1/2'
  5  'x-y, -y, -z'
  6  '-x+y, y, z'
  7  '-x+y, y, -z+1/2'
  8  'x-y, -y, z+1/2'
loop_
 _atom_site_type_symbol
 _atom_site_label
 _atom_site_symmetry_multiplicity
 _atom_site_fract_x
 _atom_site_fract_y
 _atom_site_fract_z
 _atom_site_occupancy
  Zr  Zr0  4  0.13474000  0.26948000  0.05551900  1.0
  Zr  Zr1  2  0.41660200  0.83320400  0.25000000  1.0
  Co  Co2  2  0.27571200  0.55142400  0.75000000  0.79746835445
