# generated using pymatgen
data_Th7Co3
_symmetry_space_group_name_H-M   P6_3mc
_cell_length_a   6.18422500
_cell_length_b   9.75158200
_cell_length_c   9.75158136
_cell_angle_alpha   120.00000217
_cell_angle_beta   90.00000000
_cell_angle_gamma   90.00000000
_symmetry_Int_Tables_number   186
_chemical_formula_structural   Th7Co3
_chemical_formula_sum   'Th14 Co6'
_cell_volume   509.29103321
_cell_formula_units_Z   2
loop_
 _symmetry_equiv_pos_site_id
 _symmetry_equiv_pos_as_xyz
  1  'x, y, z'
  2  'x+1/2, z, -y+z'
  3  'x, -y+z, -y'
  4  'x+1/2, -y, -z'
  5  'x, -z, y-z'
  6  'x+1/2, y-z, y'
  7  'x+1/2, y-z, -z'
  8  'x, y, y-z'
  9  'x+1/2, z, y'
  10  'x, -y+z, z'
  11  'x+1/2, -y, -y+z'
  12  'x, -z, -y'
loop_
 _atom_site_type_symbol
 _atom_site_label
 _atom_site_symmetry_multiplicity
 _atom_site_fract_x
 _atom_site_fract_y
 _atom_site_fract_z
 _atom_site_occupancy
  Th  Th0  6  0.25549300  0.12619600  0.87380300  1.0
  Th  Th1  6  0.45037300  0.54414500  0.08829000  1.0
  Th  Th2  2  0.45096800  0.33333333  0.66666667  1.0
  Co  Co3  6  0.20047800  0.37050700  0.18525400  1.0
