# generated using pymatgen
data_Y4Co3
_symmetry_space_group_name_H-M   P-3
_cell_length_a   4.09641400
_cell_length_b   11.33571600
_cell_length_c   11.33571598
_cell_angle_alpha   120.00000007
_cell_angle_beta   90.00000000
_cell_angle_gamma   90.00000000
_symmetry_Int_Tables_number   147
_chemical_formula_structural   Y4Co3
_chemical_formula_sum   'Y12 Co9'
_cell_volume   455.86094437
_cell_formula_units_Z   3
loop_
 _symmetry_equiv_pos_site_id
 _symmetry_equiv_pos_as_xyz
  1  'x, y, z'
  2  '-x, -y, -z'
  3  'x, -z, y-z'
  4  '-x, z, -y+z'
  5  'x, -y+z, -y'
  6  '-x, y-z, y'
loop_
 _atom_site_type_symbol
 _atom_site_label
 _atom_site_symmetry_multiplicity
 _atom_site_fract_x
 _atom_site_fract_y
 _atom_site_fract_z
 _atom_site_occupancy
  Y  Y0  6  0.25045200  0.51594800  0.13624900  1.0
  Y  Y1  6  0.25159300  0.24957900  0.22289000  1.0
  Co  Co2  6  0.25125400  0.15816600  0.44168600  1.0
  Co  Co3  2  0.25128700  0.33333333  0.66666667  1.0
  Co  Co4  1  0.50000000  0.00000000  0.00000000  1.0
