# generated using pymatgen
data_U3Co4Ge7
_symmetry_space_group_name_H-M   I4/mmm
_cell_length_a   4.13810200
_cell_length_b   4.13810200
_cell_length_c   13.88967522
_cell_angle_alpha   98.56684950
_cell_angle_beta   98.56684949
_cell_angle_gamma   90.00000001
_symmetry_Int_Tables_number   139
_chemical_formula_structural   U3Co4Ge7
_chemical_formula_sum   'U3 Co4 Ge7'
_cell_volume   232.50755419
_cell_formula_units_Z   1
loop_
 _symmetry_equiv_pos_site_id
 _symmetry_equiv_pos_as_xyz
  1  'x, y, z'
  2  '-x, -y, -z'
  3  '-y+z, x, z'
  4  'y-z, -x, -z'
  5  '-x+z, -y+z, z'
  6  'x-z, y-z, -z'
  7  'y, -x+z, z'
  8  '-y, x-z, -z'
  9  'x-z, -y, -z'
  10  '-x+z, y, z'
  11  '-y, -x, -z'
  12  'y, x, z'
  13  '-x, y-z, -z'
  14  'x, -y+z, z'
  15  'y-z, x-z, -z'
  16  '-y+z, -x+z, z'
loop_
 _atom_site_type_symbol
 _atom_site_label
 _atom_site_symmetry_multiplicity
 _atom_site_fract_x
 _atom_site_fract_y
 _atom_site_fract_z
 _atom_site_occupancy
  U  U0  2  0.32658000  0.32658000  0.65316000  1.0
  U  U1  1  0.00000000  0.00000000  0.00000000  1.0
  Co  Co2  2  0.11768900  0.11768900  0.23537800  1.0
  Co  Co3  2  0.25000000  0.75000000  0.50000000  1.0
  Ge  Ge4  4  0.08076200  0.58076200  0.16152400  1.0
  Ge  Ge5  2  0.20323800  0.20323800  0.40647600  1.0
  Ge  Ge6  1  0.50000000  0.50000000  0.00000000  1.0
