# generated using pymatgen
data_Sc5(Co2Si5)2
_symmetry_space_group_name_H-M   P4/mbm
_cell_length_a   3.94131800
_cell_length_b   12.01260500
_cell_length_c   12.01260500
_cell_angle_alpha   90.00000000
_cell_angle_beta   90.00000000
_cell_angle_gamma   90.00000000
_symmetry_Int_Tables_number   127
_chemical_formula_structural   Sc5(Co2Si5)2
_chemical_formula_sum   'Sc10 Co8 Si20'
_cell_volume   568.74274574
_cell_formula_units_Z   2
loop_
 _symmetry_equiv_pos_site_id
 _symmetry_equiv_pos_as_xyz
  1  'x, y, z'
  2  '-x, -y, -z'
  3  'x, -z, y'
  4  '-x, z, -y'
  5  'x, -y, -z'
  6  '-x, y, z'
  7  'x, z, -y'
  8  '-x, -z, y'
  9  '-x, y+1/2, -z+1/2'
  10  'x, -y+1/2, z+1/2'
  11  '-x, -z+1/2, -y+1/2'
  12  'x, z+1/2, y+1/2'
  13  '-x, -y+1/2, z+1/2'
  14  'x, y+1/2, -z+1/2'
  15  '-x, z+1/2, y+1/2'
  16  'x, -z+1/2, -y+1/2'
loop_
 _atom_site_type_symbol
 _atom_site_label
 _atom_site_symmetry_multiplicity
 _atom_site_fract_x
 _atom_site_fract_y
 _atom_site_fract_z
 _atom_site_occupancy
  Sc  Sc0  4  0.50000000  0.11154300  0.61154300  1.0
  Sc  Sc1  4  0.50000000  0.17623100  0.32376900  1.0
  Sc  Sc2  2  0.00000000  0.00000000  0.00000000  1.0
  Co  Co3  8  0.00000000  0.02431300  0.24595700  1.0
  Si  Si4  8  0.00000000  0.15680300  0.80194300  1.0
  Si  Si5  8  0.50000000  0.00200900  0.16373400  1.0
  Si  Si6  4  0.00000000  0.06817100  0.43182900  1.0
