# generated using pymatgen
data_Y2Co1.55555556
_symmetry_space_group_name_H-M   Cmcm
_cell_length_a   3.88535600
_cell_length_b   4.07033400
_cell_length_c   5.52805269
_cell_angle_alpha   111.60172871
_cell_angle_beta   90.00000000
_cell_angle_gamma   90.00000000
_symmetry_Int_Tables_number   63
_chemical_formula_structural   Y2Co1.55555556
_chemical_formula_sum   'Y2 Co1.55555556'
_cell_volume   81.28425124
_cell_formula_units_Z   1
loop_
 _symmetry_equiv_pos_site_id
 _symmetry_equiv_pos_as_xyz
  1  'x, y, z'
  2  '-x, -y, -z'
  3  'x+1/2, -y, -z'
  4  '-x+1/2, y, z'
  5  '-x, y-z, -z'
  6  'x, -y+z, z'
  7  '-x+1/2, -y+z, z'
  8  'x+1/2, y-z, -z'
loop_
 _atom_site_type_symbol
 _atom_site_label
 _atom_site_symmetry_multiplicity
 _atom_site_fract_x
 _atom_site_fract_y
 _atom_site_fract_z
 _atom_site_occupancy
  Y  Y0  2  0.25000000  0.14420900  0.28841800  1.0
  Co  Co1  2  0.25000000  0.44410500  0.88821000  0.7777777778
