# generated using pymatgen
data_CrMo3
_symmetry_space_group_name_H-M   R3m
_cell_length_a   2.92925950
_cell_length_b   2.92925900
_cell_length_c   8.40255015
_cell_angle_alpha   79.96162049
_cell_angle_beta   79.96162223
_cell_angle_gamma   59.99999434
_symmetry_Int_Tables_number   160
_chemical_formula_structural   CrMo3
_chemical_formula_sum   'Cr1 Mo3'
_cell_volume   61.16139092
_cell_formula_units_Z   1
loop_
 _symmetry_equiv_pos_site_id
 _symmetry_equiv_pos_as_xyz
  1  'x, y, z'
  2  '-x-y-z, x, z'
  3  'y, -x-y-z, z'
  4  'x, -x-y-z, z'
  5  '-x-y-z, y, z'
  6  'y, x, z'
loop_
 _atom_site_type_symbol
 _atom_site_label
 _atom_site_symmetry_multiplicity
 _atom_site_fract_x
 _atom_site_fract_y
 _atom_site_fract_z
 _atom_site_occupancy
  Cr  Cr0  1  0.87644500  0.87644400  0.37066600  1.0
  Mo  Mo1  1  0.13105100  0.13105200  0.60684600  1.0
  Mo  Mo2  1  0.28574600  0.28574500  0.14276300  1.0
  Mo  Mo3  1  0.70675800  0.70675900  0.87972500  1.0
