# generated using pymatgen
data_Cr
_symmetry_space_group_name_H-M   Cmcm
_cell_length_a   2.27470700
_cell_length_b   2.70029379
_cell_length_c   4.23683800
_cell_angle_alpha   90.00000000
_cell_angle_beta   90.00000000
_cell_angle_gamma   114.91014373
_symmetry_Int_Tables_number   63
_chemical_formula_structural   Cr
_chemical_formula_sum   Cr2
_cell_volume   23.60320637
_cell_formula_units_Z   2
loop_
 _symmetry_equiv_pos_site_id
 _symmetry_equiv_pos_as_xyz
  1  'x, y, z'
  2  '-x, -y, -z'
  3  '-x, -y, z+1/2'
  4  'x, y, -z+1/2'
  5  'x-y, -y, -z'
  6  '-x+y, y, z'
  7  '-x+y, y, -z+1/2'
  8  'x-y, -y, z+1/2'
loop_
 _atom_site_type_symbol
 _atom_site_label
 _atom_site_symmetry_multiplicity
 _atom_site_fract_x
 _atom_site_fract_y
 _atom_site_fract_z
 _atom_site_occupancy
  Cr  Cr0  2  0.13930100  0.27860300  0.25000000  1.0
