# generated using pymatgen
data_Sr8Tl3Cr(CuO5)4
_symmetry_space_group_name_H-M   Cmmm
_cell_length_a   3.70275800
_cell_length_b   11.79078411
_cell_length_c   11.79078411
_cell_angle_alpha   99.44153167
_cell_angle_beta   90.00000000
_cell_angle_gamma   90.00000000
_symmetry_Int_Tables_number   65
_chemical_formula_structural   Sr8Tl3Cr(CuO5)4
_chemical_formula_sum   'Sr8 Tl3 Cr1 Cu4 O20'
_cell_volume   507.79372260
_cell_formula_units_Z   1
loop_
 _symmetry_equiv_pos_site_id
 _symmetry_equiv_pos_as_xyz
  1  'x, y, z'
  2  '-x, -y, -z'
  3  'x, -y, -z'
  4  '-x, y, z'
  5  '-x, z, y'
  6  'x, -z, -y'
  7  '-x, -z, -y'
  8  'x, z, y'
loop_
 _atom_site_type_symbol
 _atom_site_label
 _atom_site_symmetry_multiplicity
 _atom_site_fract_x
 _atom_site_fract_y
 _atom_site_fract_z
 _atom_site_occupancy
  Sr  Sr0  4  0.50000000  0.01320000  0.73244100  1.0
  Sr  Sr1  4  0.50000000  0.22535600  0.52762300  1.0
  Tl  Tl2  2  0.00000000  0.27325900  0.27325900  1.0
  Tl  Tl3  1  0.00000000  0.50000000  0.50000000  1.0
  Cr  Cr4  1  0.00000000  0.00000000  0.00000000  1.0
  Cu  Cu5  2  0.00000000  0.00000000  0.50000000  1.0
  Cu  Cu6  2  0.00000000  0.24724300  0.75275700  1.0
  O  O7  4  0.00000000  0.12029000  0.63079100  1.0
  O  O8  4  0.00000000  0.13692100  0.36500300  1.0
  O  O9  2  0.00000000  0.09698000  0.90302000  1.0
  O  O10  2  0.00000000  0.38352000  0.61648000  1.0
  O  O11  2  0.50000000  0.00000000  0.50000000  1.0
  O  O12  2  0.50000000  0.08392400  0.08392400  1.0
  O  O13  2  0.50000000  0.23600600  0.76399400  1.0
  O  O14  2  0.50000000  0.37482600  0.37482600  1.0
