# generated using pymatgen
data_CrSb2
_symmetry_space_group_name_H-M   I4/mcm
_cell_length_a   5.44343158
_cell_length_b   5.44343158
_cell_length_c   5.44343158
_cell_angle_alpha   106.31645271
_cell_angle_beta   106.31645270
_cell_angle_gamma   115.98369677
_symmetry_Int_Tables_number   140
_chemical_formula_structural   CrSb2
_chemical_formula_sum   'Cr2 Sb4'
_cell_volume   122.94775721
_cell_formula_units_Z   2
loop_
 _symmetry_equiv_pos_site_id
 _symmetry_equiv_pos_as_xyz
  1  'x, y, z'
  2  '-x, -y, -z'
  3  'x-z, x, x-y'
  4  '-x+z, -x, -x+y'
  5  'y-z, x-z, -z'
  6  '-y+z, -x+z, z'
  7  'y, y-z, -x+y'
  8  '-y, -y+z, x-y'
  9  '-y+z+1/2, -y+1/2, x-y'
  10  'y-z+1/2, y+1/2, -x+y'
  11  '-y+1/2, -x+1/2, -z'
  12  'y+1/2, x+1/2, z'
  13  '-x+1/2, -x+z+1/2, -x+y'
  14  'x+1/2, x-z+1/2, x-y'
  15  '-x+z+1/2, -y+z+1/2, z'
  16  'x-z+1/2, y-z+1/2, -z'
loop_
 _atom_site_type_symbol
 _atom_site_label
 _atom_site_symmetry_multiplicity
 _atom_site_fract_x
 _atom_site_fract_y
 _atom_site_fract_z
 _atom_site_occupancy
  Cr  Cr0  2  0.25000000  0.25000000  0.00000000  1.0
  Sb  Sb1  4  0.15927400  0.34072600  0.50000000  1.0
