# generated using pymatgen
data_Cr3P
_symmetry_space_group_name_H-M   I-4
_cell_length_a   4.49633400
_cell_length_b   6.81261017
_cell_length_c   6.81261017
_cell_angle_alpha   83.74805921
_cell_angle_beta   70.73117423
_cell_angle_gamma   70.73117424
_symmetry_Int_Tables_number   82
_chemical_formula_structural   Cr3P
_chemical_formula_sum   'Cr12 P4'
_cell_volume   185.95669489
_cell_formula_units_Z   4
loop_
 _symmetry_equiv_pos_site_id
 _symmetry_equiv_pos_as_xyz
  1  'x, y, z'
  2  '-x-y, -z, y'
  3  'x+y+z, -y, -z'
  4  '-x-z, z, -y'
loop_
 _atom_site_type_symbol
 _atom_site_label
 _atom_site_symmetry_multiplicity
 _atom_site_fract_x
 _atom_site_fract_y
 _atom_site_fract_z
 _atom_site_occupancy
  Cr  Cr0  4  0.02870800  0.61195200  0.32878400  1.0
  Cr  Cr1  4  0.06514400  0.94398600  0.38873900  1.0
  Cr  Cr2  4  0.13445100  0.17666000  0.02555900  1.0
  P  P3  4  0.20618000  0.24535200  0.33516900  1.0
