# generated using pymatgen
data_Cs
_symmetry_space_group_name_H-M   Cmcm
_cell_length_a   5.27491452
_cell_length_b   5.27491452
_cell_length_c   9.42869000
_cell_angle_alpha   90.00000000
_cell_angle_beta   90.00000000
_cell_angle_gamma   119.07084650
_symmetry_Int_Tables_number   63
_chemical_formula_structural   Cs
_chemical_formula_sum   Cs2
_cell_volume   229.29963649
_cell_formula_units_Z   2
loop_
 _symmetry_equiv_pos_site_id
 _symmetry_equiv_pos_as_xyz
  1  'x, y, z'
  2  '-x, -y, -z'
  3  '-x, -y, z+1/2'
  4  'x, y, -z+1/2'
  5  'y+1/2, x+1/2, -z'
  6  '-y+1/2, -x+1/2, z'
  7  '-y+1/2, -x+1/2, -z+1/2'
  8  'y+1/2, x+1/2, z+1/2'
loop_
 _atom_site_type_symbol
 _atom_site_label
 _atom_site_symmetry_multiplicity
 _atom_site_fract_x
 _atom_site_fract_y
 _atom_site_fract_z
 _atom_site_occupancy
  Cs  Cs0  2  0.15885600  0.34114400  0.75000000  1.0
