# generated using pymatgen
data_CsI
_symmetry_space_group_name_H-M   Immm
_cell_length_a   5.54856810
_cell_length_b   5.57010436
_cell_length_c   5.57623859
_cell_angle_alpha   119.96361679
_cell_angle_beta   119.83598657
_cell_angle_gamma   90.00000000
_symmetry_Int_Tables_number   71
_chemical_formula_structural   CsI
_chemical_formula_sum   'Cs1 I1'
_cell_volume   122.23068562
_cell_formula_units_Z   1
loop_
 _symmetry_equiv_pos_site_id
 _symmetry_equiv_pos_as_xyz
  1  'x, y, z'
  2  '-x, -y, -z'
  3  '-x+z+1/2, -y+z+1/2, z'
  4  'x-z+1/2, y-z+1/2, -z'
  5  'x-z+1/2, -y, -z'
  6  '-x+z+1/2, y, z'
  7  '-x, y-z+1/2, -z'
  8  'x, -y+z+1/2, z'
loop_
 _atom_site_type_symbol
 _atom_site_label
 _atom_site_symmetry_multiplicity
 _atom_site_fract_x
 _atom_site_fract_y
 _atom_site_fract_z
 _atom_site_occupancy
  Cs  Cs0  1  0.50000000  0.50000000  0.50000000  1.0
  I  I1  1  0.00000000  0.00000000  0.50000000  1.0
