# generated using pymatgen
data_Cs(MoSe)3
_symmetry_space_group_name_H-M   P6_3/m
_cell_length_a   4.53725000
_cell_length_b   10.10048800
_cell_length_c   10.10048696
_cell_angle_alpha   120.00000340
_cell_angle_beta   90.00000000
_cell_angle_gamma   90.00000000
_symmetry_Int_Tables_number   176
_chemical_formula_structural   Cs(MoSe)3
_chemical_formula_sum   'Cs2 Mo6 Se6'
_cell_volume   400.87409772
_cell_formula_units_Z   2
loop_
 _symmetry_equiv_pos_site_id
 _symmetry_equiv_pos_as_xyz
  1  'x, y, z'
  2  '-x, -y, -z'
  3  'x+1/2, z, -y+z'
  4  '-x+1/2, -z, y-z'
  5  'x, -y+z, -y'
  6  '-x, y-z, y'
  7  'x+1/2, -y, -z'
  8  '-x+1/2, y, z'
  9  'x, -z, y-z'
  10  '-x, z, -y+z'
  11  'x+1/2, y-z, y'
  12  '-x+1/2, -y+z, -y'
loop_
 _atom_site_type_symbol
 _atom_site_label
 _atom_site_symmetry_multiplicity
 _atom_site_fract_x
 _atom_site_fract_y
 _atom_site_fract_z
 _atom_site_occupancy
  Cs  Cs0  2  0.25000000  0.33333333  0.66666667  1.0
  Mo  Mo1  6  0.25000000  0.02394100  0.16283300  1.0
  Se  Se2  6  0.25000000  0.32275200  0.27431400  1.0
