# generated using pymatgen
data_Zn0.1Cu1.9Se4
_symmetry_space_group_name_H-M   Pnnm
_cell_length_a   3.81095700
_cell_length_b   5.04209200
_cell_length_c   6.21856300
_cell_angle_alpha   90.00000000
_cell_angle_beta   90.00000000
_cell_angle_gamma   90.00000000
_symmetry_Int_Tables_number   58
_chemical_formula_structural   Zn0.1Cu1.9Se4
_chemical_formula_sum   'Zn0.1 Cu1.9 Se4'
_cell_volume   119.49090565
_cell_formula_units_Z   1
loop_
 _symmetry_equiv_pos_site_id
 _symmetry_equiv_pos_as_xyz
  1  'x, y, z'
  2  '-x, -y, -z'
  3  'x, -y, -z'
  4  '-x, y, z'
  5  '-x+1/2, y+1/2, -z+1/2'
  6  'x+1/2, -y+1/2, z+1/2'
  7  '-x+1/2, -y+1/2, z+1/2'
  8  'x+1/2, y+1/2, -z+1/2'
loop_
 _atom_site_type_symbol
 _atom_site_label
 _atom_site_symmetry_multiplicity
 _atom_site_fract_x
 _atom_site_fract_y
 _atom_site_fract_z
 _atom_site_occupancy
  Cu  Cu0  2  0.00000000  0.00000000  0.00000000  0.95
  Zn  Zn1  2  0.00000000  0.00000000  0.00000000  0.05
  Se  Se2  4  0.00000000  0.18812300  0.38530800  1.0
