# generated using pymatgen
data_Zn0.99Cu2.01
_symmetry_space_group_name_H-M   P-3m1
_cell_length_a   2.63753600
_cell_length_b   2.63753584
_cell_length_c   6.26046800
_cell_angle_alpha   90.00000000
_cell_angle_beta   90.00000000
_cell_angle_gamma   120.00000195
_symmetry_Int_Tables_number   164
_chemical_formula_structural   Zn0.99Cu2.01
_chemical_formula_sum   'Zn0.99 Cu2.01'
_cell_volume   37.71674356
_cell_formula_units_Z   1
loop_
 _symmetry_equiv_pos_site_id
 _symmetry_equiv_pos_as_xyz
  1  'x, y, z'
  2  '-x, -y, -z'
  3  '-y, x-y, z'
  4  'y, -x+y, -z'
  5  '-x+y, -x, z'
  6  'x-y, x, -z'
  7  'y, x, -z'
  8  '-y, -x, z'
  9  'x-y, -y, -z'
  10  '-x+y, y, z'
  11  '-x, -x+y, -z'
  12  'x, x-y, z'
loop_
 _atom_site_type_symbol
 _atom_site_label
 _atom_site_symmetry_multiplicity
 _atom_site_fract_x
 _atom_site_fract_y
 _atom_site_fract_z
 _atom_site_occupancy
  Zn  Zn0  1  0.00000000  0.00000000  0.00000000  0.99
  Cu  Cu1  1  0.00000000  0.00000000  0.00000000  0.01
  Cu  Cu2  2  0.33333333  0.66666667  0.66304200  1.0
