# generated using pymatgen
data_Sr4Ho2Cu0.2Ru1.8O12
_symmetry_space_group_name_H-M   P2_1/c
_cell_length_a   5.80520900
_cell_length_b   5.86291100
_cell_length_c   8.23254730
_cell_angle_alpha   90.00000000
_cell_angle_beta   89.63364069
_cell_angle_gamma   90.00000000
_symmetry_Int_Tables_number   14
_chemical_formula_structural   Sr4Ho2Cu0.2Ru1.8O12
_chemical_formula_sum   'Sr4 Ho2 Cu0.2 Ru1.8 O12'
_cell_volume   280.19250751
_cell_formula_units_Z   1
loop_
 _symmetry_equiv_pos_site_id
 _symmetry_equiv_pos_as_xyz
  1  'x, y, z'
  2  '-x, -y, -z'
  3  '-x+1/2, y+1/2, -z+1/2'
  4  'x+1/2, -y+1/2, z+1/2'
loop_
 _atom_site_type_symbol
 _atom_site_label
 _atom_site_symmetry_multiplicity
 _atom_site_fract_x
 _atom_site_fract_y
 _atom_site_fract_z
 _atom_site_occupancy
  Sr  Sr0  4  0.00823700  0.96426200  0.75065000  1.0
  Ho  Ho1  2  0.00000000  0.50000000  0.50000000  1.0
  Ru  Ru2  2  0.00000000  0.50000000  0.00000000  0.9
  Cu  Cu3  2  0.00000000  0.50000000  0.00000000  0.1
  O  O4  4  0.07381100  0.48113500  0.23479200  1.0
  O  O5  4  0.19807100  0.22819200  0.95977200  1.0
  O  O6  4  0.22955800  0.20079800  0.53822300  1.0
