# generated using pymatgen
data_LiLa20Cu9O40
_symmetry_space_group_name_H-M   P-1
_cell_length_a   8.95596200
_cell_length_b   10.37588342
_cell_length_c   11.71472292
_cell_angle_alpha   100.33086830
_cell_angle_beta   109.26689700
_cell_angle_gamma   103.36471582
_symmetry_Int_Tables_number   2
_chemical_formula_structural   LiLa20Cu9O40
_chemical_formula_sum   'Li1 La20 Cu9 O40'
_cell_volume   960.30205882
_cell_formula_units_Z   1
loop_
 _symmetry_equiv_pos_site_id
 _symmetry_equiv_pos_as_xyz
  1  'x, y, z'
  2  '-x, -y, -z'
loop_
 _atom_site_type_symbol
 _atom_site_label
 _atom_site_symmetry_multiplicity
 _atom_site_fract_x
 _atom_site_fract_y
 _atom_site_fract_z
 _atom_site_occupancy
  Li  Li0  1  0.50000000  0.50000000  0.50000000  1.0
  La  La1  2  0.07703300  0.38592200  0.91067500  1.0
  La  La2  2  0.09254000  0.89064000  0.42127800  1.0
  La  La3  2  0.11481100  0.50897400  0.38070300  1.0
  La  La4  2  0.12359000  0.01445600  0.88914800  1.0
  La  La5  2  0.27672200  0.78401800  0.71055600  1.0
  La  La6  2  0.29330500  0.29481700  0.22540000  1.0
  La  La7  2  0.30978900  0.91066800  0.18027800  1.0
  La  La8  2  0.32576900  0.41529800  0.68484900  1.0
  La  La9  2  0.47739400  0.19154200  0.51167200  1.0
  La  La10  2  0.49169400  0.69010100  0.02087800  1.0
  Cu  Cu11  2  0.09927700  0.20010700  0.39942600  1.0
  Cu  Cu12  2  0.10021100  0.69971600  0.90048800  1.0
  Cu  Cu13  2  0.29927300  0.60025000  0.19962300  1.0
  Cu  Cu14  2  0.29954300  0.09934600  0.69973900  1.0
  Cu  Cu15  1  0.50000000  0.00000000  0.00000000  1.0
  O  O16  2  0.00515600  0.24289100  0.24510000  1.0
  O  O17  2  0.01841500  0.85865500  0.03075800  1.0
  O  O18  2  0.04285400  0.66102800  0.50733200  1.0
  O  O19  2  0.09189200  0.95472900  0.65456600  1.0
  O  O20  2  0.10452600  0.44316500  0.14439800  1.0
  O  O21  2  0.16021700  0.74104400  0.29192400  1.0
  O  O22  2  0.18521100  0.54320500  0.76999900  1.0
  O  O23  2  0.19467200  0.15700700  0.55545800  1.0
  O  O24  2  0.20703700  0.64239000  0.04670700  1.0
  O  O25  2  0.21573200  0.25542300  0.83049200  1.0
  O  O26  2  0.23861500  0.05990100  0.30711600  1.0
  O  O27  2  0.29202400  0.35462200  0.45366700  1.0
  O  O28  2  0.30687200  0.84374100  0.94542200  1.0
  O  O29  2  0.36185200  0.14059900  0.09477300  1.0
  O  O30  2  0.38290500  0.93899800  0.57152300  1.0
  O  O31  2  0.39354400  0.55675400  0.35292400  1.0
  O  O32  2  0.40488200  0.04223800  0.84535600  1.0
  O  O33  2  0.41528400  0.65288700  0.62524800  1.0
  O  O34  2  0.43897700  0.46079600  0.10592100  1.0
  O  O35  2  0.49535000  0.75749600  0.25537900  1.0
