# generated using pymatgen
data_Li0.8La4Cu1.2O8
_symmetry_space_group_name_H-M   Cmmm
_cell_length_a   5.30500300
_cell_length_b   5.31234400
_cell_length_c   7.11242369
_cell_angle_alpha   68.07112974
_cell_angle_beta   90.00000000
_cell_angle_gamma   90.00000000
_symmetry_Int_Tables_number   65
_chemical_formula_structural   Li0.8La4Cu1.2O8
_chemical_formula_sum   'Li0.8 La4 Cu1.2 O8'
_cell_volume   185.93996604
_cell_formula_units_Z   1
loop_
 _symmetry_equiv_pos_site_id
 _symmetry_equiv_pos_as_xyz
  1  'x, y, z'
  2  '-x, -y, -z'
  3  'x, -y, -z'
  4  '-x, y, z'
  5  '-x, y+z, -z'
  6  'x, -y-z, z'
  7  '-x, -y-z, z'
  8  'x, y+z, -z'
loop_
 _atom_site_type_symbol
 _atom_site_label
 _atom_site_symmetry_multiplicity
 _atom_site_fract_x
 _atom_site_fract_y
 _atom_site_fract_z
 _atom_site_occupancy
  La  La0  2  0.00000000  0.36205200  0.27589600  1.0
  La  La1  2  0.50000000  0.13941800  0.72116400  1.0
  Li  Li2  1  0.50000000  0.50000000  0.00000000  0.8
  Cu  Cu3  1  0.50000000  0.50000000  0.00000000  0.2
  Cu  Cu4  1  0.00000000  0.00000000  0.00000000  1.0
  O  O5  4  0.24490900  0.24297400  0.00000000  1.0
  O  O6  2  0.00000000  0.18618500  0.62763000  1.0
  O  O7  2  0.50000000  0.32055600  0.35888800  1.0
