# generated using pymatgen
data_Cu
_symmetry_space_group_name_H-M   Cmcm
_cell_length_a   2.46304000
_cell_length_b   2.51898500
_cell_length_c   4.17916482
_cell_angle_alpha   90.00000000
_cell_angle_beta   107.13840302
_cell_angle_gamma   90.00000000
_symmetry_Int_Tables_number   63
_chemical_formula_structural   Cu
_chemical_formula_sum   Cu2
_cell_volume   24.77768573
_cell_formula_units_Z   2
loop_
 _symmetry_equiv_pos_site_id
 _symmetry_equiv_pos_as_xyz
  1  'x, y, z'
  2  '-x, -y, -z'
  3  '-x, y+1/2, -z'
  4  'x, -y+1/2, z'
  5  'x-z, -y, -z'
  6  '-x+z, y, z'
  7  '-x+z, -y+1/2, z'
  8  'x-z, y+1/2, -z'
loop_
 _atom_site_type_symbol
 _atom_site_label
 _atom_site_symmetry_multiplicity
 _atom_site_fract_x
 _atom_site_fract_y
 _atom_site_fract_z
 _atom_site_occupancy
  Cu  Cu0  2  0.13399900  0.25000000  0.26799800  1.0
