# generated using pymatgen
data_Cu
_symmetry_space_group_name_H-M   P-3m1
_cell_length_a   2.54060000
_cell_length_b   2.54059988
_cell_length_c   24.74394200
_cell_angle_alpha   90.00000000
_cell_angle_beta   90.00000000
_cell_angle_gamma   120.00000159
_symmetry_Int_Tables_number   164
_chemical_formula_structural   Cu
_chemical_formula_sum   Cu6
_cell_volume   138.31589164
_cell_formula_units_Z   6
loop_
 _symmetry_equiv_pos_site_id
 _symmetry_equiv_pos_as_xyz
  1  'x, y, z'
  2  '-x+2/3, -y+1/3, -z+5/12'
  3  '-y, x-y, z'
  4  'y+2/3, -x+y+1/3, -z+5/12'
  5  '-x+y, -x, z'
  6  'x-y+2/3, x+1/3, -z+5/12'
  7  'y+2/3, x+1/3, -z+5/12'
  8  '-y, -x, z'
  9  'x-y+2/3, -y+1/3, -z+5/12'
  10  '-x+y, y, z'
  11  '-x+2/3, -x+y+1/3, -z+5/12'
  12  'x, x-y, z'
loop_
 _atom_site_type_symbol
 _atom_site_label
 _atom_site_symmetry_multiplicity
 _atom_site_fract_x
 _atom_site_fract_y
 _atom_site_fract_z
 _atom_site_occupancy
  Cu  Cu0  2  0.00000000  0.00000000  0.25028800  1.0
  Cu  Cu1  2  0.00000000  0.00000000  0.99810900  1.0
  Cu  Cu2  2  0.33333333  0.66666667  0.08250000  1.0
