# generated using pymatgen
data_Cu9S5
_symmetry_space_group_name_H-M   R-3m
_cell_length_a   3.87378941
_cell_length_b   3.87378941
_cell_length_c   16.22725074
_cell_angle_alpha   83.14480313
_cell_angle_beta   83.14480313
_cell_angle_gamma   60.00001014
_symmetry_Int_Tables_number   166
_chemical_formula_structural   Cu9S5
_chemical_formula_sum   'Cu9 S5'
_cell_volume   208.87335733
_cell_formula_units_Z   1
loop_
 _symmetry_equiv_pos_site_id
 _symmetry_equiv_pos_as_xyz
  1  'x, y, z'
  2  '-x, -y, -z'
  3  '-x-y-z, x, z'
  4  'x+y+z, -x, -z'
  5  'y, -x-y-z, z'
  6  '-y, x+y+z, -z'
  7  '-x, x+y+z, -z'
  8  'x, -x-y-z, z'
  9  'x+y+z, -y, -z'
  10  '-x-y-z, y, z'
  11  '-y, -x, -z'
  12  'y, x, z'
loop_
 _atom_site_type_symbol
 _atom_site_label
 _atom_site_symmetry_multiplicity
 _atom_site_fract_x
 _atom_site_fract_y
 _atom_site_fract_z
 _atom_site_occupancy
  Cu  Cu0  2  0.05204100  0.05204100  0.84387700  1.0
  Cu  Cu1  2  0.13705000  0.13705000  0.58885000  1.0
  Cu  Cu2  2  0.24811000  0.24811000  0.25567000  1.0
  Cu  Cu3  2  0.35171000  0.35171000  0.94487000  1.0
  Cu  Cu4  1  0.50000000  0.50000000  0.50000000  1.0
  S  S5  2  0.20116800  0.20116800  0.39649600  1.0
  S  S6  2  0.40013100  0.40013100  0.79960700  1.0
  S  S7  1  0.00000000  0.00000000  0.00000000  1.0
