# generated using pymatgen
data_Cu1.8S1
_symmetry_space_group_name_H-M   Imm2
_cell_length_a   3.68600623
_cell_length_b   4.10850068
_cell_length_c   4.05472282
_cell_angle_alpha   60.43205788
_cell_angle_beta   90.00000000
_cell_angle_gamma   116.65280003
_symmetry_Int_Tables_number   44
_chemical_formula_structural   Cu1.8S1
_chemical_formula_sum   'Cu1.8 S1'
_cell_volume   45.75670709
_cell_formula_units_Z   1
loop_
 _symmetry_equiv_pos_site_id
 _symmetry_equiv_pos_as_xyz
  1  'x, y, z'
  2  '-x, -y, y+z'
  3  '-x+y, y, z'
  4  'x-y, -y, y+z'
loop_
 _atom_site_type_symbol
 _atom_site_label
 _atom_site_symmetry_multiplicity
 _atom_site_fract_x
 _atom_site_fract_y
 _atom_site_fract_z
 _atom_site_occupancy
  Cu  Cu0  2  0.29068800  0.58137600  0.32271100  0.9
  S  S1  1  0.00000000  0.00000000  0.94160200  1.0
