# generated using pymatgen
data_Cu7.2S4
_symmetry_space_group_name_H-M   P4_32_12
_cell_length_a   3.99359000
_cell_length_b   3.99359000
_cell_length_c   11.23716700
_cell_angle_alpha   90.00000000
_cell_angle_beta   90.00000000
_cell_angle_gamma   90.00000000
_symmetry_Int_Tables_number   96
_chemical_formula_structural   Cu7.2S4
_chemical_formula_sum   'Cu7.2 S4'
_cell_volume   179.21889179
_cell_formula_units_Z   1
loop_
 _symmetry_equiv_pos_site_id
 _symmetry_equiv_pos_as_xyz
  1  'x, y, z'
  2  '-y+1/2, x+1/2, z+3/4'
  3  '-x, -y, z+1/2'
  4  'y+1/2, -x+1/2, z+1/4'
  5  'x+1/2, -y+1/2, -z+1/4'
  6  '-y, -x, -z+1/2'
  7  '-x+1/2, y+1/2, -z+3/4'
  8  'y, x, -z'
loop_
 _atom_site_type_symbol
 _atom_site_label
 _atom_site_symmetry_multiplicity
 _atom_site_fract_x
 _atom_site_fract_y
 _atom_site_fract_z
 _atom_site_occupancy
  Cu  Cu0  8  0.00034400  0.66020700  0.41547700  0.9
  S  S1  4  0.00285900  0.99714100  0.25000000  1.0
