# generated using pymatgen
data_Cu3S1.66666667
_symmetry_space_group_name_H-M   P-4m2
_cell_length_a   3.47250806
_cell_length_b   3.47250806
_cell_length_c   5.93388300
_cell_angle_alpha   90.00000000
_cell_angle_beta   90.00000000
_cell_angle_gamma   90.00000000
_symmetry_Int_Tables_number   115
_chemical_formula_structural   Cu3S1.66666667
_chemical_formula_sum   'Cu3 S1.66666667'
_cell_volume   71.55261393
_cell_formula_units_Z   1
loop_
 _symmetry_equiv_pos_site_id
 _symmetry_equiv_pos_as_xyz
  1  'x, y, z'
  2  'y+1/2, -x+1/2, -z+1/2'
  3  '-x, -y, z'
  4  '-y+1/2, x+1/2, -z+1/2'
  5  '-x, y, z'
  6  '-y+1/2, -x+1/2, -z+1/2'
  7  'x, -y, z'
  8  'y+1/2, x+1/2, -z+1/2'
loop_
 _atom_site_type_symbol
 _atom_site_label
 _atom_site_symmetry_multiplicity
 _atom_site_fract_x
 _atom_site_fract_y
 _atom_site_fract_z
 _atom_site_occupancy
  Cu  Cu0  2  0.00000000  0.00000000  0.57997000  1.0
  Cu  Cu1  1  0.50000000  0.00000000  0.25000000  1.0
  S  S2  2  0.00000000  0.00000000  0.98158100  0.83333333335
