# generated using pymatgen
data_Cu9S5
_symmetry_space_group_name_H-M   P-1
_cell_length_a   6.72508400
_cell_length_b   7.76895151
_cell_length_c   8.70338600
_cell_angle_alpha   77.14160338
_cell_angle_beta   75.02882752
_cell_angle_gamma   73.29919110
_symmetry_Int_Tables_number   2
_chemical_formula_structural   Cu9S5
_chemical_formula_sum   'Cu18 S10'
_cell_volume   415.31994893
_cell_formula_units_Z   2
loop_
 _symmetry_equiv_pos_site_id
 _symmetry_equiv_pos_as_xyz
  1  'x, y, z'
  2  '-x, -y, -z'
loop_
 _atom_site_type_symbol
 _atom_site_label
 _atom_site_symmetry_multiplicity
 _atom_site_fract_x
 _atom_site_fract_y
 _atom_site_fract_z
 _atom_site_occupancy
  Cu  Cu0  2  0.04617000  0.94795400  0.15011100  1.0
  Cu  Cu1  2  0.04636300  0.45440800  0.15008900  1.0
  Cu  Cu2  2  0.15085900  0.84894000  0.44879400  1.0
  Cu  Cu3  2  0.15148900  0.34935600  0.45349800  1.0
  Cu  Cu4  2  0.25629200  0.74938300  0.74465800  1.0
  Cu  Cu5  2  0.34769900  0.65194900  0.04360700  1.0
  Cu  Cu6  2  0.34952200  0.15111100  0.04580600  1.0
  Cu  Cu7  2  0.44574700  0.55484100  0.34757900  1.0
  Cu  Cu8  2  0.45399900  0.04654100  0.34919800  1.0
  S  S9  2  0.09743300  0.65032000  0.30045500  1.0
  S  S10  2  0.10125700  0.15000900  0.29936900  1.0
  S  S11  2  0.29865100  0.44810100  0.89902000  1.0
  S  S12  2  0.29945600  0.95302200  0.89959000  1.0
  S  S13  2  0.49764600  0.25012900  0.50168800  1.0
