# generated using pymatgen
data_Cu3.6S2
_symmetry_space_group_name_H-M   I-42d
_cell_length_a   3.92868200
_cell_length_b   5.04328917
_cell_length_c   5.04328917
_cell_angle_alpha   81.27412920
_cell_angle_beta   67.07685682
_cell_angle_gamma   67.07685683
_symmetry_Int_Tables_number   122
_chemical_formula_structural   Cu3.6S2
_chemical_formula_sum   'Cu3.6 S2'
_cell_volume   84.76575394
_cell_formula_units_Z   1
loop_
 _symmetry_equiv_pos_site_id
 _symmetry_equiv_pos_as_xyz
  1  'x, y, z'
  2  '-x-y, -z, y'
  3  'x+y+z, -y, -z'
  4  '-x-z, z, -y'
  5  '-x-y-z+1/4, z+1/2, y+1/2'
  6  'x+z+1/4, y+1/2, -z+1/2'
  7  '-x+1/4, -z+1/2, -y+1/2'
  8  'x+y+1/4, -y+1/2, z+1/2'
loop_
 _atom_site_type_symbol
 _atom_site_label
 _atom_site_symmetry_multiplicity
 _atom_site_fract_x
 _atom_site_fract_y
 _atom_site_fract_z
 _atom_site_occupancy
  Cu  Cu0  4  0.03871700  0.33628300  0.83628300  0.9
  S  S1  2  0.50000000  0.00000000  0.00000000  1.0
