# generated using pymatgen
data_Ho2CuO4
_symmetry_space_group_name_H-M   Cmce
_cell_length_a   5.47871500
_cell_length_b   5.48364400
_cell_length_c   6.52028283
_cell_angle_alpha   65.13342427
_cell_angle_beta   90.00000000
_cell_angle_gamma   90.00000000
_symmetry_Int_Tables_number   64
_chemical_formula_structural   Ho2CuO4
_chemical_formula_sum   'Ho4 Cu2 O8'
_cell_volume   177.72980731
_cell_formula_units_Z   2
loop_
 _symmetry_equiv_pos_site_id
 _symmetry_equiv_pos_as_xyz
  1  'x, y, z'
  2  '-x, -y, -z'
  3  'x+1/2, -y+1/2, -z'
  4  '-x+1/2, y+1/2, z'
  5  '-x, -y-z, z'
  6  'x, y+z, -z'
  7  '-x+1/2, y+z+1/2, -z'
  8  'x+1/2, -y-z+1/2, z'
loop_
 _atom_site_type_symbol
 _atom_site_label
 _atom_site_symmetry_multiplicity
 _atom_site_fract_x
 _atom_site_fract_y
 _atom_site_fract_z
 _atom_site_occupancy
  Ho  Ho0  4  0.00000000  0.34504900  0.30990200  1.0
  Cu  Cu1  2  0.00000000  0.00000000  0.00000000  1.0
  O  O2  4  0.19542600  0.69497300  0.00000000  1.0
  O  O3  4  0.25000000  0.01073200  0.50000000  1.0
