# generated using pymatgen
data_La2CuO4
_symmetry_space_group_name_H-M   Cmc2_1
_cell_length_a   5.38141600
_cell_length_b   5.43927500
_cell_length_c   19.94036899
_cell_angle_alpha   90.00000000
_cell_angle_beta   97.75501877
_cell_angle_gamma   90.00000000
_symmetry_Int_Tables_number   36
_chemical_formula_structural   La2CuO4
_chemical_formula_sum   'La12 Cu6 O24'
_cell_volume   578.33633080
_cell_formula_units_Z   6
loop_
 _symmetry_equiv_pos_site_id
 _symmetry_equiv_pos_as_xyz
  1  'x, y, z'
  2  '-x, y+1/2, -z'
  3  '-x+z, y, z'
  4  'x-z, y+1/2, -z'
loop_
 _atom_site_type_symbol
 _atom_site_label
 _atom_site_symmetry_multiplicity
 _atom_site_fract_x
 _atom_site_fract_y
 _atom_site_fract_z
 _atom_site_occupancy
  La  La0  2  0.03669400  0.99375900  0.07338800  1.0
  La  La1  2  0.12960000  0.99032600  0.25920000  1.0
  La  La2  2  0.20348500  0.48802600  0.40697000  1.0
  La  La3  2  0.29637100  0.51015800  0.59274200  1.0
  La  La4  2  0.37028400  0.00940200  0.74056800  1.0
  La  La5  2  0.46298400  0.00352300  0.92596800  1.0
  Cu  Cu6  2  0.08308900  0.49609500  0.16617800  1.0
  Cu  Cu7  2  0.25007900  0.99943500  0.50015800  1.0
  Cu  Cu8  2  0.41680900  0.49936000  0.83361800  1.0
  O  O9  4  0.00240300  0.25035900  0.50428800  1.0
  O  O10  4  0.16363500  0.24845800  0.83319400  1.0
  O  O11  4  0.16813700  0.74657500  0.83300900  1.0
  O  O12  2  0.02156700  0.48021300  0.04313400  1.0
  O  O13  2  0.14500200  0.52776800  0.29000400  1.0
  O  O14  2  0.18801500  0.03557400  0.37603000  1.0
  O  O15  2  0.31205600  0.96315300  0.62411200  1.0
  O  O16  2  0.35454400  0.46329300  0.70908800  1.0
  O  O17  2  0.47929500  0.43803900  0.95859000  1.0
