# generated using pymatgen
data_La3.93700787Cu3.93700787O10
_symmetry_space_group_name_H-M   P4_2/m
_cell_length_a   5.59504300
_cell_length_b   6.66076300
_cell_length_c   6.66076300
_cell_angle_alpha   90.00000000
_cell_angle_beta   90.00000000
_cell_angle_gamma   90.00000000
_symmetry_Int_Tables_number   84
_chemical_formula_structural   La3.93700787Cu3.93700787O10
_chemical_formula_sum   'La3.93700787 Cu3.93700787 O10'
_cell_volume   248.22835587
_cell_formula_units_Z   1
loop_
 _symmetry_equiv_pos_site_id
 _symmetry_equiv_pos_as_xyz
  1  'x, y, z'
  2  '-x, -y, -z'
  3  'x+1/2, -z, y'
  4  '-x+1/2, z, -y'
  5  'x, -y, -z'
  6  '-x, y, z'
  7  'x+1/2, z, -y'
  8  '-x+1/2, -z, y'
loop_
 _atom_site_type_symbol
 _atom_site_label
 _atom_site_symmetry_multiplicity
 _atom_site_fract_x
 _atom_site_fract_y
 _atom_site_fract_z
 _atom_site_occupancy
  La  La0  4  0.00000000  0.11084000  0.26614200  0.9842519685
  Cu  Cu1  4  0.00000000  0.41042400  0.68710900  0.9842519685
  O  O2  8  0.24111200  0.21217600  0.59324200  1.0
  O  O3  2  0.25000000  0.00000000  0.00000000  1.0
