# generated using pymatgen
data_La3.93700787Cu3.93700787O10
_symmetry_space_group_name_H-M   Pbam
_cell_length_a   3.92537400
_cell_length_b   5.48569700
_cell_length_c   10.54424800
_cell_angle_alpha   90.00000000
_cell_angle_beta   90.00000000
_cell_angle_gamma   90.00000000
_symmetry_Int_Tables_number   55
_chemical_formula_structural   La3.93700787Cu3.93700787O10
_chemical_formula_sum   'La3.93700787 Cu3.93700787 O10'
_cell_volume   227.05364038
_cell_formula_units_Z   1
loop_
 _symmetry_equiv_pos_site_id
 _symmetry_equiv_pos_as_xyz
  1  'x, y, z'
  2  '-x, -y, -z'
  3  'x, -y, -z'
  4  '-x, y, z'
  5  '-x, y+1/2, -z+1/2'
  6  'x, -y+1/2, z+1/2'
  7  '-x, -y+1/2, z+1/2'
  8  'x, y+1/2, -z+1/2'
loop_
 _atom_site_type_symbol
 _atom_site_label
 _atom_site_symmetry_multiplicity
 _atom_site_fract_x
 _atom_site_fract_y
 _atom_site_fract_z
 _atom_site_occupancy
  La  La0  4  0.50000000  0.19408300  0.86299700  0.9842519685
  Cu  Cu1  4  0.00000000  0.20378500  0.60495700  0.9842519685
  O  O2  4  0.00000000  0.08309700  0.29067900  1.0
  O  O3  4  0.50000000  0.21422200  0.60413800  1.0
  O  O4  2  0.00000000  0.00000000  0.00000000  1.0
