# generated using pymatgen
data_La3.4Sm0.6Cu2O8
_symmetry_space_group_name_H-M   Cmce
_cell_length_a   5.35630400
_cell_length_b   5.54339200
_cell_length_c   7.07819620
_cell_angle_alpha   90.00000000
_cell_angle_beta   112.23253374
_cell_angle_gamma   90.00000000
_symmetry_Int_Tables_number   64
_chemical_formula_structural   La3.4Sm0.6Cu2O8
_chemical_formula_sum   'La3.4 Sm0.6 Cu2 O8'
_cell_volume   194.54181968
_cell_formula_units_Z   1
loop_
 _symmetry_equiv_pos_site_id
 _symmetry_equiv_pos_as_xyz
  1  'x, y, z'
  2  '-x, -y, -z'
  3  '-x+1/2, y+1/2, -z'
  4  'x+1/2, -y+1/2, z'
  5  'x-z, -y, -z'
  6  '-x+z, y, z'
  7  '-x+z+1/2, -y+1/2, z'
  8  'x-z+1/2, y+1/2, -z'
loop_
 _atom_site_type_symbol
 _atom_site_label
 _atom_site_symmetry_multiplicity
 _atom_site_fract_x
 _atom_site_fract_y
 _atom_site_fract_z
 _atom_site_occupancy
  La  La0  4  0.13898900  0.48534600  0.27797800  0.85
  Sm  Sm1  4  0.13898900  0.48534600  0.27797800  0.15
  Cu  Cu2  2  0.00000000  0.00000000  0.00000000  1.0
  O  O3  4  0.18678000  0.05978900  0.37356000  1.0
  O  O4  4  0.23876600  0.25000000  0.97753200  1.0
