# generated using pymatgen
data_Cu(Mo3Se4)2
_symmetry_space_group_name_H-M   R-3
_cell_length_a   6.74989068
_cell_length_b   6.74989068
_cell_length_c   6.74989023
_cell_angle_alpha   93.07823762
_cell_angle_beta   93.07823762
_cell_angle_gamma   93.07824141
_symmetry_Int_Tables_number   148
_chemical_formula_structural   Cu(Mo3Se4)2
_chemical_formula_sum   'Cu1 Mo6 Se8'
_cell_volume   306.15097181
_cell_formula_units_Z   1
loop_
 _symmetry_equiv_pos_site_id
 _symmetry_equiv_pos_as_xyz
  1  'x, y, z'
  2  '-x, -y, -z'
  3  'z, x, y'
  4  '-z, -x, -y'
  5  'y, z, x'
  6  '-y, -z, -x'
loop_
 _atom_site_type_symbol
 _atom_site_label
 _atom_site_symmetry_multiplicity
 _atom_site_fract_x
 _atom_site_fract_y
 _atom_site_fract_z
 _atom_site_occupancy
  Cu  Cu0  1  0.00000000  0.00000000  0.00000000  1.0
  Mo  Mo1  6  0.22623900  0.54606200  0.41206300  1.0
  Se  Se2  6  0.12901600  0.37770600  0.73755300  1.0
  Se  Se3  2  0.21155300  0.21155300  0.21155300  1.0
