# generated using pymatgen
data_Nd3.7Y0.3Cu2O8
_symmetry_space_group_name_H-M   Cmce
_cell_length_a   5.24944800
_cell_length_b   5.59673400
_cell_length_c   6.91514864
_cell_angle_alpha   90.00000000
_cell_angle_beta   112.30652190
_cell_angle_gamma   90.00000000
_symmetry_Int_Tables_number   64
_chemical_formula_structural   Nd3.7Y0.3Cu2O8
_chemical_formula_sum   'Nd3.7 Y0.3 Cu2 O8'
_cell_volume   187.96185909
_cell_formula_units_Z   1
loop_
 _symmetry_equiv_pos_site_id
 _symmetry_equiv_pos_as_xyz
  1  'x, y, z'
  2  '-x, -y, -z'
  3  '-x+1/2, y+1/2, -z'
  4  'x+1/2, -y+1/2, z'
  5  'x-z, -y, -z'
  6  '-x+z, y, z'
  7  '-x+z+1/2, -y+1/2, z'
  8  'x-z+1/2, y+1/2, -z'
loop_
 _atom_site_type_symbol
 _atom_site_label
 _atom_site_symmetry_multiplicity
 _atom_site_fract_x
 _atom_site_fract_y
 _atom_site_fract_z
 _atom_site_occupancy
  Nd  Nd0  4  0.13883400  0.51837100  0.27766800  0.925
  Y  Y1  4  0.13883400  0.51837100  0.27766800  0.075
  Cu  Cu2  2  0.00000000  0.00000000  0.00000000  1.0
  O  O3  4  0.18681900  0.92571700  0.37363800  1.0
  O  O4  4  0.23296600  0.75000000  0.96593200  1.0
