# generated using pymatgen
data_Nd4Cu2O7
_symmetry_space_group_name_H-M   C2/m
_cell_length_a   3.79788600
_cell_length_b   6.68362899
_cell_length_c   8.52856418
_cell_angle_alpha   108.60523423
_cell_angle_beta   90.00000000
_cell_angle_gamma   106.50616751
_symmetry_Int_Tables_number   12
_chemical_formula_structural   Nd4Cu2O7
_chemical_formula_sum   'Nd4 Cu2 O7'
_cell_volume   195.73587877
_cell_formula_units_Z   1
loop_
 _symmetry_equiv_pos_site_id
 _symmetry_equiv_pos_as_xyz
  1  'x, y, z'
  2  '-x, -y, -z'
  3  'x-y, -y, -z'
  4  '-x+y, y, z'
loop_
 _atom_site_type_symbol
 _atom_site_label
 _atom_site_symmetry_multiplicity
 _atom_site_fract_x
 _atom_site_fract_y
 _atom_site_fract_z
 _atom_site_occupancy
  Nd  Nd0  2  0.34069700  0.68139400  0.68076600  1.0
  Nd  Nd1  2  0.35736500  0.71473000  0.16605100  1.0
  Cu  Cu2  1  0.00000000  0.00000000  0.00000000  1.0
  Cu  Cu3  1  0.00000000  0.00000000  0.50000000  1.0
  O  O4  2  0.01026600  0.02053200  0.29107700  1.0
  O  O5  2  0.25206100  0.50412200  0.88009500  1.0
  O  O6  2  0.27514800  0.55029600  0.38472700  1.0
  O  O7  1  0.50000000  0.00000000  0.00000000  1.0
