# generated using pymatgen
data_CuO
_symmetry_space_group_name_H-M   Pnma
_cell_length_a   2.83003800
_cell_length_b   6.46151600
_cell_length_c   12.33154600
_cell_angle_alpha   90.00000000
_cell_angle_beta   90.00000000
_cell_angle_gamma   90.00000000
_symmetry_Int_Tables_number   62
_chemical_formula_structural   CuO
_chemical_formula_sum   'Cu8 O8'
_cell_volume   225.49879131
_cell_formula_units_Z   8
loop_
 _symmetry_equiv_pos_site_id
 _symmetry_equiv_pos_as_xyz
  1  'x, y, z'
  2  '-x, -y, -z'
  3  '-x, -y+1/2, z+1/2'
  4  'x, y+1/2, -z+1/2'
  5  '-x+1/2, y+1/2, -z+1/2'
  6  'x+1/2, -y+1/2, z+1/2'
  7  'x+1/2, -y, -z'
  8  '-x+1/2, y, z'
loop_
 _atom_site_type_symbol
 _atom_site_label
 _atom_site_symmetry_multiplicity
 _atom_site_fract_x
 _atom_site_fract_y
 _atom_site_fract_z
 _atom_site_occupancy
  Cu  Cu0  4  0.25000000  0.10761600  0.25424100  1.0
  Cu  Cu1  4  0.25000000  0.15123400  0.59847300  1.0
  O  O2  4  0.25000000  0.04391200  0.39834900  1.0
  O  O3  4  0.25000000  0.15821000  0.10934200  1.0
