# generated using pymatgen
data_CuO
_symmetry_space_group_name_H-M   I4/mmm
_cell_length_a   3.67496400
_cell_length_b   6.47320517
_cell_length_c   6.47320517
_cell_angle_alpha   85.37830648
_cell_angle_beta   73.50930129
_cell_angle_gamma   73.50930130
_symmetry_Int_Tables_number   139
_chemical_formula_structural   CuO
_chemical_formula_sum   'Cu4 O4'
_cell_volume   141.58182872
_cell_formula_units_Z   4
loop_
 _symmetry_equiv_pos_site_id
 _symmetry_equiv_pos_as_xyz
  1  'x, y, z'
  2  '-x, -y, -z'
  3  'x+y, z, -y'
  4  '-x-y, -z, y'
  5  'x+y+z, -y, -z'
  6  '-x-y-z, y, z'
  7  'x+z, -z, y'
  8  '-x-z, z, -y'
  9  '-x-y-z, z, y'
  10  'x+y+z, -z, -y'
  11  '-x-z, -y, z'
  12  'x+z, y, -z'
  13  '-x, -z, -y'
  14  'x, z, y'
  15  '-x-y, y, -z'
  16  'x+y, -y, z'
loop_
 _atom_site_type_symbol
 _atom_site_label
 _atom_site_symmetry_multiplicity
 _atom_site_fract_x
 _atom_site_fract_y
 _atom_site_fract_z
 _atom_site_occupancy
  Cu  Cu0  4  0.16737400  0.00000000  0.66525200  1.0
  O  O1  4  0.00000000  0.27340600  0.72659400  1.0
