# generated using pymatgen
data_Sr0.9Pr0.1Cu1O2
_symmetry_space_group_name_H-M   Pm
_cell_length_a   4.25138472
_cell_length_b   4.42121400
_cell_length_c   6.55548739
_cell_angle_alpha   90.00000000
_cell_angle_beta   84.99079061
_cell_angle_gamma   90.00000000
_symmetry_Int_Tables_number   6
_chemical_formula_structural   Sr0.9Pr0.1Cu1O2
_chemical_formula_sum   'Sr0.9 Pr0.1 Cu1 O2'
_cell_volume   122.74817486
_cell_formula_units_Z   1
loop_
 _symmetry_equiv_pos_site_id
 _symmetry_equiv_pos_as_xyz
  1  'x, y, z'
  2  'x, -y, z'
loop_
 _atom_site_type_symbol
 _atom_site_label
 _atom_site_symmetry_multiplicity
 _atom_site_fract_x
 _atom_site_fract_y
 _atom_site_fract_z
 _atom_site_occupancy
  Sr  Sr0  1  0.18324900  0.50000000  0.06145200  0.9
  Pr  Pr1  1  0.18324900  0.50000000  0.06145200  0.1
  Cu  Cu2  1  0.83553500  0.50000000  0.64172400  1.0
  O  O3  1  0.02026500  0.50000000  0.39857300  1.0
  O  O4  1  0.69943100  0.50000000  0.90417100  1.0
