# generated using pymatgen
data_Ti2CuS4
_symmetry_space_group_name_H-M   R-3m
_cell_length_a   7.03400467
_cell_length_b   7.03400467
_cell_length_c   12.28614005
_cell_angle_alpha   73.36595820
_cell_angle_beta   73.36595820
_cell_angle_gamma   59.99999367
_symmetry_Int_Tables_number   166
_chemical_formula_structural   Ti2CuS4
_chemical_formula_sum   'Ti8 Cu4 S16'
_cell_volume   496.85234893
_cell_formula_units_Z   4
loop_
 _symmetry_equiv_pos_site_id
 _symmetry_equiv_pos_as_xyz
  1  'x, y, z'
  2  '-x, -y, -z'
  3  '-x-y-z, x, z'
  4  'x+y+z, -x, -z'
  5  'y, -x-y-z, z'
  6  '-y, x+y+z, -z'
  7  '-x, x+y+z, -z'
  8  'x, -x-y-z, z'
  9  'x+y+z, -y, -z'
  10  '-x-y-z, y, z'
  11  '-y, -x, -z'
  12  'y, x, z'
loop_
 _atom_site_type_symbol
 _atom_site_label
 _atom_site_symmetry_multiplicity
 _atom_site_fract_x
 _atom_site_fract_y
 _atom_site_fract_z
 _atom_site_occupancy
  Ti  Ti0  6  0.08258400  0.08258400  0.25322300  1.0
  Ti  Ti1  1  0.00000000  0.00000000  0.00000000  1.0
  Ti  Ti2  1  0.50000000  0.50000000  0.50000000  1.0
  Cu  Cu3  2  0.18787100  0.18787100  0.43638700  1.0
  Cu  Cu4  2  0.35360500  0.35360500  0.93918500  1.0
  S  S5  6  0.13799300  0.61517200  0.63166300  1.0
  S  S6  6  0.20151600  0.20151600  0.87300300  1.0
  S  S7  2  0.12350800  0.12350800  0.62947600  1.0
  S  S8  2  0.28854800  0.28854800  0.13435600  1.0
