# generated using pymatgen
data_CuS
_symmetry_space_group_name_H-M   P3m1
_cell_length_a   3.62300200
_cell_length_b   3.62300133
_cell_length_c   5.32035600
_cell_angle_alpha   90.00000000
_cell_angle_beta   90.00000000
_cell_angle_gamma   120.00000609
_symmetry_Int_Tables_number   156
_chemical_formula_structural   CuS
_chemical_formula_sum   'Cu1 S1'
_cell_volume   60.47952414
_cell_formula_units_Z   1
loop_
 _symmetry_equiv_pos_site_id
 _symmetry_equiv_pos_as_xyz
  1  'x, y, z'
  2  '-y, x-y, z'
  3  '-x+y, -x, z'
  4  '-y, -x, z'
  5  '-x+y, y, z'
  6  'x, x-y, z'
loop_
 _atom_site_type_symbol
 _atom_site_label
 _atom_site_symmetry_multiplicity
 _atom_site_fract_x
 _atom_site_fract_y
 _atom_site_fract_z
 _atom_site_occupancy
  Cu  Cu0  1  0.66666667  0.33333333  0.01578600  1.0
  S  S1  1  0.33333333  0.66666667  0.10835400  1.0
