# generated using pymatgen
data_Sr3.36700337Cu3.36700337O10
_symmetry_space_group_name_H-M   Pbam
_cell_length_a   3.75151600
_cell_length_b   5.54653000
_cell_length_c   11.03750500
_cell_angle_alpha   90.00000000
_cell_angle_beta   90.00000000
_cell_angle_gamma   90.00000000
_symmetry_Int_Tables_number   55
_chemical_formula_structural   Sr3.36700337Cu3.36700337O10
_chemical_formula_sum   'Sr3.36700337 Cu3.36700337 O10'
_cell_volume   229.66725658
_cell_formula_units_Z   1
loop_
 _symmetry_equiv_pos_site_id
 _symmetry_equiv_pos_as_xyz
  1  'x, y, z'
  2  '-x, -y, -z'
  3  'x, -y, -z'
  4  '-x, y, z'
  5  '-x, y+1/2, -z+1/2'
  6  'x, -y+1/2, z+1/2'
  7  '-x, -y+1/2, z+1/2'
  8  'x, y+1/2, -z+1/2'
loop_
 _atom_site_type_symbol
 _atom_site_label
 _atom_site_symmetry_multiplicity
 _atom_site_fract_x
 _atom_site_fract_y
 _atom_site_fract_z
 _atom_site_occupancy
  Sr  Sr0  4  0.50000000  0.21304300  0.86503600  0.84175084175
  Cu  Cu1  4  0.00000000  0.24220800  0.62255700  0.84175084175
  O  O2  4  0.00000000  0.01751400  0.26923200  1.0
  O  O3  4  0.50000000  0.20711200  0.59623800  1.0
  O  O4  2  0.00000000  0.00000000  0.00000000  1.0
