# generated using pymatgen
data_Sr1.98675497Cu0.99337748O3
_symmetry_space_group_name_H-M   Immm
_cell_length_a   3.54867200
_cell_length_b   3.97322200
_cell_length_c   6.88268143
_cell_angle_alpha   106.77649868
_cell_angle_beta   104.93939583
_cell_angle_gamma   90.00000001
_symmetry_Int_Tables_number   71
_chemical_formula_structural   Sr1.98675497Cu0.99337748O3
_chemical_formula_sum   'Sr1.98675497 Cu0.99337748 O3'
_cell_volume   89.48166976
_cell_formula_units_Z   1
loop_
 _symmetry_equiv_pos_site_id
 _symmetry_equiv_pos_as_xyz
  1  'x, y, z'
  2  '-x, -y, -z'
  3  '-x+z, -y+z, z'
  4  'x-z, y-z, -z'
  5  'x-z, -y, -z'
  6  '-x+z, y, z'
  7  '-x, y-z, -z'
  8  'x, -y+z, z'
loop_
 _atom_site_type_symbol
 _atom_site_label
 _atom_site_symmetry_multiplicity
 _atom_site_fract_x
 _atom_site_fract_y
 _atom_site_fract_z
 _atom_site_occupancy
  Sr  Sr0  2  0.35321800  0.85321800  0.70643600  0.99337748345
  Cu  Cu1  1  0.00000000  0.50000000  0.00000000  0.9933774834
  O  O2  2  0.15470800  0.65470800  0.30941600  1.0
  O  O3  1  0.00000000  0.00000000  0.00000000  1.0
