# generated using pymatgen
data_Ti2CuS4
_symmetry_space_group_name_H-M   Cc
_cell_length_a   6.63686251
_cell_length_b   6.63686251
_cell_length_c   7.04732002
_cell_angle_alpha   104.19805912
_cell_angle_beta   104.19805912
_cell_angle_gamma   118.58098623
_symmetry_Int_Tables_number   9
_chemical_formula_structural   Ti2CuS4
_chemical_formula_sum   'Ti4 Cu2 S8'
_cell_volume   239.09451524
_cell_formula_units_Z   2
loop_
 _symmetry_equiv_pos_site_id
 _symmetry_equiv_pos_as_xyz
  1  'x, y, z'
  2  'y, x, z+1/2'
loop_
 _atom_site_type_symbol
 _atom_site_label
 _atom_site_symmetry_multiplicity
 _atom_site_fract_x
 _atom_site_fract_y
 _atom_site_fract_z
 _atom_site_occupancy
  Ti  Ti0  2  0.25220000  0.50604200  0.01627100  1.0
  Ti  Ti1  2  0.74701600  0.99581500  0.00207200  1.0
  Cu  Cu2  2  0.27190200  0.51555400  0.47491700  1.0
  S  S3  2  0.19961000  0.20509600  0.66446200  1.0
  S  S4  2  0.27686600  0.79577800  0.32802200  1.0
  S  S5  2  0.29170200  0.78629800  0.83699700  1.0
  S  S6  2  0.70139000  0.71599200  0.17872600  1.0
