# generated using pymatgen
data_CuSe
_symmetry_space_group_name_H-M   Cmcm
_cell_length_a   4.00869200
_cell_length_b   4.03037320
_cell_length_c   17.43492300
_cell_angle_alpha   90.00000000
_cell_angle_beta   90.00000000
_cell_angle_gamma   119.82220809
_symmetry_Int_Tables_number   63
_chemical_formula_structural   CuSe
_chemical_formula_sum   'Cu6 Se6'
_cell_volume   244.38463223
_cell_formula_units_Z   6
loop_
 _symmetry_equiv_pos_site_id
 _symmetry_equiv_pos_as_xyz
  1  'x, y, z'
  2  '-x, -y, -z'
  3  '-x, -y, z+1/2'
  4  'x, y, -z+1/2'
  5  'x-y, -y, -z'
  6  '-x+y, y, z'
  7  '-x+y, y, -z+1/2'
  8  'x-y, -y, z+1/2'
loop_
 _atom_site_type_symbol
 _atom_site_label
 _atom_site_symmetry_multiplicity
 _atom_site_fract_x
 _atom_site_fract_y
 _atom_site_fract_z
 _atom_site_occupancy
  Cu  Cu0  4  0.34051000  0.68102000  0.10791300  1.0
  Cu  Cu1  2  0.36639900  0.73279800  0.75000000  1.0
  Se  Se2  4  0.00680200  0.01360400  0.06957200  1.0
  Se  Se3  2  0.30198500  0.60397000  0.25000000  1.0
