# generated using pymatgen
data_SrCuO2
_symmetry_space_group_name_H-M   Cmcm
_cell_length_a   3.64443800
_cell_length_b   3.97426300
_cell_length_c   8.32909336
_cell_angle_alpha   90.00000000
_cell_angle_beta   102.63724532
_cell_angle_gamma   90.00000000
_symmetry_Int_Tables_number   63
_chemical_formula_structural   SrCuO2
_chemical_formula_sum   'Sr2 Cu2 O4'
_cell_volume   117.71572346
_cell_formula_units_Z   2
loop_
 _symmetry_equiv_pos_site_id
 _symmetry_equiv_pos_as_xyz
  1  'x, y, z'
  2  '-x, -y, -z'
  3  '-x, y+1/2, -z'
  4  'x, -y+1/2, z'
  5  'x-z, -y, -z'
  6  '-x+z, y, z'
  7  '-x+z, -y+1/2, z'
  8  'x-z, y+1/2, -z'
loop_
 _atom_site_type_symbol
 _atom_site_label
 _atom_site_symmetry_multiplicity
 _atom_site_fract_x
 _atom_site_fract_y
 _atom_site_fract_z
 _atom_site_occupancy
  Sr  Sr0  2  0.33259000  0.75000000  0.66518000  1.0
  Cu  Cu1  2  0.06216500  0.75000000  0.12433000  1.0
  O  O2  2  0.05515800  0.25000000  0.11031600  1.0
  O  O3  2  0.17961900  0.75000000  0.35923800  1.0
