# generated using pymatgen
data_Cu1Se0.2S1.8
_symmetry_space_group_name_H-M   C2
_cell_length_a   3.71397310
_cell_length_b   3.71397310
_cell_length_c   4.97738304
_cell_angle_alpha   104.40568871
_cell_angle_beta   104.40568871
_cell_angle_gamma   106.30647362
_symmetry_Int_Tables_number   5
_chemical_formula_structural   Cu1Se0.2S1.8
_chemical_formula_sum   'Cu1 Se0.2 S1.8'
_cell_volume   59.95598008
_cell_formula_units_Z   1
loop_
 _symmetry_equiv_pos_site_id
 _symmetry_equiv_pos_as_xyz
  1  'x, y, z'
  2  '-y, -x, -z'
loop_
 _atom_site_type_symbol
 _atom_site_label
 _atom_site_symmetry_multiplicity
 _atom_site_fract_x
 _atom_site_fract_y
 _atom_site_fract_z
 _atom_site_occupancy
  Cu  Cu0  1  0.27705400  0.72294600  0.50000000  1.0
  S  S1  2  0.05192800  0.07732500  0.21964800  0.9
  Se  Se2  2  0.05192800  0.07732500  0.21964800  0.1
