# generated using pymatgen
data_Ti2CuS4
_symmetry_space_group_name_H-M   Fdd2
_cell_length_a   6.62366800
_cell_length_b   6.62366800
_cell_length_c   7.10423391
_cell_angle_alpha   104.37441087
_cell_angle_beta   104.37441085
_cell_angle_gamma   117.86967597
_symmetry_Int_Tables_number   43
_chemical_formula_structural   Ti2CuS4
_chemical_formula_sum   'Ti4 Cu2 S8'
_cell_volume   241.54898289
_cell_formula_units_Z   2
loop_
 _symmetry_equiv_pos_site_id
 _symmetry_equiv_pos_as_xyz
  1  'x, y, z'
  2  'y-z, x-z, -z'
  3  'y+1/4, x+3/4, z+1/2'
  4  'x-z+1/4, y-z+3/4, -z+1/2'
loop_
 _atom_site_type_symbol
 _atom_site_label
 _atom_site_symmetry_multiplicity
 _atom_site_fract_x
 _atom_site_fract_y
 _atom_site_fract_z
 _atom_site_occupancy
  Ti  Ti0  4  0.23911500  0.74812100  0.99079000  1.0
  Cu  Cu1  2  0.51453500  0.51453500  0.00000000  1.0
  S  S2  4  0.04044300  0.29179700  0.83560300  1.0
  S  S3  4  0.04240800  0.27919300  0.32921700  1.0
