# generated using pymatgen
data_CuTe
_symmetry_space_group_name_H-M   Pmmn
_cell_length_a   3.63423500
_cell_length_b   6.98080700
_cell_length_c   14.47392100
_cell_angle_alpha   90.00000000
_cell_angle_beta   90.00000000
_cell_angle_gamma   90.00000000
_symmetry_Int_Tables_number   59
_chemical_formula_structural   CuTe
_chemical_formula_sum   'Cu2 Te2'
_cell_volume   367.20182891
_cell_formula_units_Z   2
loop_
 _symmetry_equiv_pos_site_id
 _symmetry_equiv_pos_as_xyz
  1  'x, y, z'
  2  '-x, y, -z'
  3  'x+1/2, -y, -z+1/2'
  4  '-x+1/2, -y, z+1/2'
  5  '-x+1/2, -y, -z+1/2'
  6  'x+1/2, -y, z+1/2'
  7  '-x, y, z'
  8  'x, y, -z'
loop_
 _atom_site_type_symbol
 _atom_site_label
 _atom_site_symmetry_multiplicity
 _atom_site_fract_x
 _atom_site_fract_y
 _atom_site_fract_z
 _atom_site_occupancy
  Cu  Cu0  2  0.00000000  0.49403900  0.50000000  1.0
  Te  Te1  2  0.00000000  0.73313300  0.00000000  1.0
