# generated using pymatgen
data_Tm2CuO4
_symmetry_space_group_name_H-M   Fmm2
_cell_length_a   3.84431322
_cell_length_b   3.84431322
_cell_length_c   6.37190521
_cell_angle_alpha   107.51401019
_cell_angle_beta   107.51401024
_cell_angle_gamma   90.13717231
_symmetry_Int_Tables_number   42
_chemical_formula_structural   Tm2CuO4
_chemical_formula_sum   'Tm2 Cu1 O4'
_cell_volume   85.19187076
_cell_formula_units_Z   1
loop_
 _symmetry_equiv_pos_site_id
 _symmetry_equiv_pos_as_xyz
  1  'x, y, z'
  2  '-y, -x, -z'
  3  '-y+z, -x+z, z'
  4  'x-z, y-z, -z'
loop_
 _atom_site_type_symbol
 _atom_site_label
 _atom_site_symmetry_multiplicity
 _atom_site_fract_x
 _atom_site_fract_y
 _atom_site_fract_z
 _atom_site_occupancy
  Tm  Tm0  2  0.34499500  0.34859300  0.69358800  1.0
  Cu  Cu1  1  0.02473900  0.97526100  0.00000000  1.0
  O  O2  2  0.04226100  0.47293600  0.00000000  1.0
  O  O3  2  0.25026700  0.74973300  0.50000000  1.0
