# generated using pymatgen
data_Tm2CuO4
_symmetry_space_group_name_H-M   P2_1/c
_cell_length_a   4.67142000
_cell_length_b   5.83429200
_cell_length_c   6.04076337
_cell_angle_alpha   90.00000000
_cell_angle_beta   103.00585928
_cell_angle_gamma   90.00000000
_symmetry_Int_Tables_number   14
_chemical_formula_structural   Tm2CuO4
_chemical_formula_sum   'Tm4 Cu2 O8'
_cell_volume   160.41411434
_cell_formula_units_Z   2
loop_
 _symmetry_equiv_pos_site_id
 _symmetry_equiv_pos_as_xyz
  1  'x, y, z'
  2  '-x, -y, -z'
  3  '-x, y+1/2, -z+1/2'
  4  'x, -y+1/2, z+1/2'
loop_
 _atom_site_type_symbol
 _atom_site_label
 _atom_site_symmetry_multiplicity
 _atom_site_fract_x
 _atom_site_fract_y
 _atom_site_fract_z
 _atom_site_occupancy
  Tm  Tm0  4  0.33844300  0.53741800  0.19513400  1.0
  Cu  Cu1  2  0.00000000  0.00000000  0.00000000  1.0
  O  O2  4  0.16330700  0.60755700  0.80554900  1.0
  O  O3  4  0.35904400  0.19612900  0.99919000  1.0
