# generated using pymatgen
data_CuTe
_symmetry_space_group_name_H-M   I4/mmm
_cell_length_a   3.85122912
_cell_length_b   3.85122912
_cell_length_c   3.85122912
_cell_angle_alpha   93.40364323
_cell_angle_beta   116.90562136
_cell_angle_gamma   119.21629828
_symmetry_Int_Tables_number   139
_chemical_formula_structural   CuTe
_chemical_formula_sum   'Cu1 Te1'
_cell_volume   41.47581840
_cell_formula_units_Z   1
loop_
 _symmetry_equiv_pos_site_id
 _symmetry_equiv_pos_as_xyz
  1  'x, y, z'
  2  '-x+1/2, -y, -z+1/2'
  3  '-y+z, z+1/4, -x+z+3/4'
  4  'y-z+1/2, -z+3/4, x-z+3/4'
  5  '-x+1/2, -x+z, -x+y+1/2'
  6  'x, x-z, x-y'
  7  'y-z+1/2, -x+y+3/4, y+3/4'
  8  '-y+z, x-y+1/4, -y+3/4'
  9  '-y+z, -y, x-y'
  10  'y-z+1/2, y, -x+y+1/2'
  11  '-x+1/2, -z+3/4, -y+3/4'
  12  'x, z+1/4, y+3/4'
  13  'y-z+1/2, x-z, -z+1/2'
  14  '-y+z, -x+z, z'
  15  'x, x-y+1/4, x-z+3/4'
  16  '-x+1/2, -x+y+3/4, -x+z+3/4'
loop_
 _atom_site_type_symbol
 _atom_site_label
 _atom_site_symmetry_multiplicity
 _atom_site_fract_x
 _atom_site_fract_y
 _atom_site_fract_z
 _atom_site_occupancy
  Cu  Cu0  1  0.75000000  0.50000000  0.25000000  1.0
  Te  Te1  1  0.75000000  0.00000000  0.75000000  1.0
