# generated using pymatgen
data_Er2Cu2O5
_symmetry_space_group_name_H-M   Pna2_1
_cell_length_a   3.48875200
_cell_length_b   10.84675200
_cell_length_c   12.48531700
_cell_angle_alpha   90.00000000
_cell_angle_beta   90.00000000
_cell_angle_gamma   90.00000000
_symmetry_Int_Tables_number   33
_chemical_formula_structural   Er2Cu2O5
_chemical_formula_sum   'Er8 Cu8 O20'
_cell_volume   472.46471805
_cell_formula_units_Z   4
loop_
 _symmetry_equiv_pos_site_id
 _symmetry_equiv_pos_as_xyz
  1  'x, y, z'
  2  '-x, -y, z+1/2'
  3  'x+1/2, -y+1/2, z+1/2'
  4  '-x+1/2, y+1/2, z'
loop_
 _atom_site_type_symbol
 _atom_site_label
 _atom_site_symmetry_multiplicity
 _atom_site_fract_x
 _atom_site_fract_y
 _atom_site_fract_z
 _atom_site_occupancy
  Er  Er0  4  0.21951700  0.20855500  0.49940600  1.0
  Er  Er1  4  0.22211100  0.04316100  0.82707700  1.0
  Cu  Cu2  4  0.15415900  0.23663700  0.21566800  1.0
  Cu  Cu3  4  0.15939800  0.50970600  0.10945300  1.0
  O  O4  4  0.16218600  0.62614100  0.66312900  1.0
  O  O5  4  0.21687600  0.17664000  0.06339200  1.0
  O  O6  4  0.22338100  0.56976500  0.26053300  1.0
  O  O7  4  0.22350800  0.32624400  0.35504400  1.0
  O  O8  4  0.22551200  0.42180000  0.96950000  1.0
