# generated using pymatgen
data_Sr1.90217391Y0.95108696Fe0.95108696Cu1.90217391O7
_symmetry_space_group_name_H-M   Pmmm
_cell_length_a   3.75853101
_cell_length_b   3.88632101
_cell_length_c   11.60401100
_cell_angle_alpha   89.99999506
_cell_angle_beta   89.99999506
_cell_angle_gamma   90.00984802
_symmetry_Int_Tables_number   47
_chemical_formula_structural
Sr1.90217391Y0.95108696Fe0.95108696Cu1.90217391O7
_chemical_formula_sum
'Sr1.90217391 Y0.95108696 Fe0.95108696 Cu1.90217391 O7'
_cell_volume   169.49813876
_cell_formula_units_Z   1
loop_
 _symmetry_equiv_pos_site_id
 _symmetry_equiv_pos_as_xyz
  1  'x, y, z'
  2  '-x, -y, -z'
  3  '-x, -y, z'
  4  'x, y, -z'
  5  'x, -y, -z'
  6  '-x, y, z'
  7  '-x, y, -z'
  8  'x, -y, z'
loop_
 _atom_site_type_symbol
 _atom_site_label
 _atom_site_symmetry_multiplicity
 _atom_site_fract_x
 _atom_site_fract_y
 _atom_site_fract_z
 _atom_site_occupancy
  Sr  Sr0  2  0.49999900  0.50000000  0.18788700  0.9510869565
  Y  Y1  1  0.49999900  0.50000000  0.50000200  0.9510869565
  Fe  Fe2  1  0.00000400  0.00000100  0.00000000  0.9510869565
  Cu  Cu3  2  0.00000000  0.00000100  0.35205900  0.9510869565
  O  O4  2  0.00000100  0.50000000  0.37234500  1.0
  O  O5  2  0.00000100  0.00000000  0.83766600  1.0
  O  O6  2  0.49999900  0.00000000  0.37635900  1.0
  O  O7  1  0.00000000  0.49999900  0.00000000  1.0
