# generated using pymatgen
data_Sr3.82513661Y1.91256831Fe1.91256831Cu3.82513661O14
_symmetry_space_group_name_H-M   Ima2
_cell_length_a   5.42801000
_cell_length_b   5.52461800
_cell_length_c   12.28734132
_cell_angle_alpha   102.99166648
_cell_angle_beta   102.76061515
_cell_angle_gamma   90.00000002
_symmetry_Int_Tables_number   46
_chemical_formula_structural
Sr3.82513661Y1.91256831Fe1.91256831Cu3.82513661O14
_chemical_formula_sum
'Sr3.82513661 Y1.91256831 Fe1.91256831 Cu3.82513661 O14'
_cell_volume   349.69106493
_cell_formula_units_Z   1
loop_
 _symmetry_equiv_pos_site_id
 _symmetry_equiv_pos_as_xyz
  1  'x, y, z'
  2  'x-z, -y, -z'
  3  'x-z+1/2, y-z+1/2, -z'
  4  'x+1/2, -y+z+1/2, z'
loop_
 _atom_site_type_symbol
 _atom_site_label
 _atom_site_symmetry_multiplicity
 _atom_site_fract_x
 _atom_site_fract_y
 _atom_site_fract_z
 _atom_site_occupancy
  Sr  Sr0  4  0.13897500  0.66689300  0.30164300  0.956284153
  Y  Y1  2  0.48470800  0.00000000  0.00000000  0.956284153
  Fe  Fe2  2  0.27603900  0.31631200  0.49999900  0.956284153
  Cu  Cu3  4  0.05432500  0.07194700  0.14155600  0.956284153
  O  O4  4  0.13654200  0.13144800  0.35055500  1.0
  O  O5  4  0.16444600  0.68112800  0.87304600  1.0
  O  O6  4  0.17802300  0.18210100  0.87724800  1.0
  O  O7  2  0.13475100  0.64121400  0.50000000  1.0
