# generated using pymatgen
data_Sr4Gd2Ti0.06Cu4Ru1.94O16
_symmetry_space_group_name_H-M   P4/mbm
_cell_length_a   5.47245100
_cell_length_b   5.47245100
_cell_length_c   11.74070200
_cell_angle_alpha   90.00000000
_cell_angle_beta   90.00000000
_cell_angle_gamma   90.00000000
_symmetry_Int_Tables_number   127
_chemical_formula_structural   Sr4Gd2Ti0.06Cu4Ru1.94O16
_chemical_formula_sum   'Sr4 Gd2 Ti0.06 Cu4 Ru1.94 O16'
_cell_volume   351.60725548
_cell_formula_units_Z   1
loop_
 _symmetry_equiv_pos_site_id
 _symmetry_equiv_pos_as_xyz
  1  'x, y, z'
  2  '-x, -y, -z'
  3  '-y, x, z'
  4  'y, -x, -z'
  5  '-x, -y, z'
  6  'x, y, -z'
  7  'y, -x, z'
  8  '-y, x, -z'
  9  'x+1/2, -y+1/2, -z'
  10  '-x+1/2, y+1/2, z'
  11  '-y+1/2, -x+1/2, -z'
  12  'y+1/2, x+1/2, z'
  13  '-x+1/2, y+1/2, -z'
  14  'x+1/2, -y+1/2, z'
  15  'y+1/2, x+1/2, -z'
  16  '-y+1/2, -x+1/2, z'
loop_
 _atom_site_type_symbol
 _atom_site_label
 _atom_site_symmetry_multiplicity
 _atom_site_fract_x
 _atom_site_fract_y
 _atom_site_fract_z
 _atom_site_occupancy
  Sr  Sr0  4  0.00000000  0.50000000  0.18986400  1.0
  Gd  Gd1  2  0.00000000  0.50000000  0.50000000  1.0
  Cu  Cu2  4  0.00000000  0.00000000  0.35697900  1.0
  Ru  Ru3  2  0.00000000  0.00000000  0.00000000  0.97
  Ti  Ti4  2  0.00000000  0.00000000  0.00000000  0.03
  O  O5  8  0.24954400  0.25045600  0.37319300  1.0
  O  O6  4  0.00000000  0.00000000  0.16719200  1.0
  O  O7  4  0.18295600  0.68295600  0.00000000  1.0
