# generated using pymatgen
data_Sr2HoCu2RuO8
_symmetry_space_group_name_H-M   Amm2
_cell_length_a   3.83601705
_cell_length_b   3.83601705
_cell_length_c   11.86972500
_cell_angle_alpha   90.00000000
_cell_angle_beta   90.00000000
_cell_angle_gamma   89.91952108
_symmetry_Int_Tables_number   38
_chemical_formula_structural   Sr2HoCu2RuO8
_chemical_formula_sum   'Sr2 Ho1 Cu2 Ru1 O8'
_cell_volume   174.66314928
_cell_formula_units_Z   1
loop_
 _symmetry_equiv_pos_site_id
 _symmetry_equiv_pos_as_xyz
  1  'x, y, z'
  2  'y, x, -z'
  3  'x, y, -z'
  4  'y, x, z'
loop_
 _atom_site_type_symbol
 _atom_site_label
 _atom_site_symmetry_multiplicity
 _atom_site_fract_x
 _atom_site_fract_y
 _atom_site_fract_z
 _atom_site_occupancy
  Sr  Sr0  2  0.50499000  0.50499000  0.30589300  1.0
  Ho  Ho1  1  0.50061000  0.50061000  0.00000000  1.0
  Cu  Cu2  2  0.00118200  0.00118200  0.14150900  1.0
  Ru  Ru3  1  0.01353400  0.01353400  0.50000000  1.0
  O  O4  4  0.50157000  0.99989100  0.12112100  1.0
  O  O5  2  0.01472300  0.51384400  0.50000000  1.0
  O  O6  2  0.01510900  0.01510900  0.32755800  1.0
