# generated using pymatgen
data_Ho2Cu2O5
_symmetry_space_group_name_H-M   Pna2_1
_cell_length_a   3.50962900
_cell_length_b   10.88107400
_cell_length_c   12.51726400
_cell_angle_alpha   90.00000000
_cell_angle_beta   90.00000000
_cell_angle_gamma   90.00000000
_symmetry_Int_Tables_number   33
_chemical_formula_structural   Ho2Cu2O5
_chemical_formula_sum   'Ho8 Cu8 O20'
_cell_volume   478.01594760
_cell_formula_units_Z   4
loop_
 _symmetry_equiv_pos_site_id
 _symmetry_equiv_pos_as_xyz
  1  'x, y, z'
  2  '-x, -y, z+1/2'
  3  'x+1/2, -y+1/2, z+1/2'
  4  '-x+1/2, y+1/2, z'
loop_
 _atom_site_type_symbol
 _atom_site_label
 _atom_site_symmetry_multiplicity
 _atom_site_fract_x
 _atom_site_fract_y
 _atom_site_fract_z
 _atom_site_occupancy
  Ho  Ho0  4  0.22117200  0.20753400  0.50290200  1.0
  Ho  Ho1  4  0.22248900  0.04267200  0.83053600  1.0
  Cu  Cu2  4  0.15629800  0.23808600  0.21943500  1.0
  Cu  Cu3  4  0.16026700  0.51152300  0.11347800  1.0
  O  O4  4  0.15525100  0.62471900  0.66666667  1.0
  O  O5  4  0.21900800  0.17793800  0.06783800  1.0
  O  O6  4  0.22459200  0.57151800  0.26464400  1.0
  O  O7  4  0.22496800  0.32669000  0.35869300  1.0
  O  O8  4  0.22739500  0.42306300  0.97411600  1.0
