# generated using pymatgen
data_SrLa2(CuO3)2
_symmetry_space_group_name_H-M   I4/mmm
_cell_length_a   3.87841400
_cell_length_b   3.87841400
_cell_length_c   10.33212123
_cell_angle_alpha   100.81784305
_cell_angle_beta   100.81784305
_cell_angle_gamma   90.00000000
_symmetry_Int_Tables_number   139
_chemical_formula_structural   SrLa2(CuO3)2
_chemical_formula_sum   'Sr1 La2 Cu2 O6'
_cell_volume   149.84198135
_cell_formula_units_Z   1
loop_
 _symmetry_equiv_pos_site_id
 _symmetry_equiv_pos_as_xyz
  1  'x, y, z'
  2  '-x, -y, -z'
  3  '-y+z, x, z'
  4  'y-z, -x, -z'
  5  '-x+z, -y+z, z'
  6  'x-z, y-z, -z'
  7  'y, -x+z, z'
  8  '-y, x-z, -z'
  9  'x-z, -y, -z'
  10  '-x+z, y, z'
  11  '-y, -x, -z'
  12  'y, x, z'
  13  '-x, y-z, -z'
  14  'x, -y+z, z'
  15  'y-z, x-z, -z'
  16  '-y+z, -x+z, z'
loop_
 _atom_site_type_symbol
 _atom_site_label
 _atom_site_symmetry_multiplicity
 _atom_site_fract_x
 _atom_site_fract_y
 _atom_site_fract_z
 _atom_site_occupancy
  Sr  Sr0  1  0.00000000  0.00000000  0.00000000  1.0
  La  La1  2  0.17737200  0.17737200  0.35474400  1.0
  Cu  Cu2  2  0.41117000  0.41117000  0.82234000  1.0
  O  O3  4  0.08879300  0.58879300  0.17758600  1.0
  O  O4  2  0.29275800  0.29275800  0.58551600  1.0
