# generated using pymatgen
data_Sr2SmNb(CuO4)2
_symmetry_space_group_name_H-M   I4/mcm
_cell_length_a   5.52082400
_cell_length_b   5.52082400
_cell_length_c   12.45823047
_cell_angle_alpha   102.80146088
_cell_angle_beta   102.80146088
_cell_angle_gamma   90.00000000
_symmetry_Int_Tables_number   140
_chemical_formula_structural   Sr2SmNb(CuO4)2
_chemical_formula_sum   'Sr4 Sm2 Nb2 Cu4 O16'
_cell_volume   360.59674921
_cell_formula_units_Z   2
loop_
 _symmetry_equiv_pos_site_id
 _symmetry_equiv_pos_as_xyz
  1  'x, y, z'
  2  '-x, -y, -z'
  3  '-y+z, x, z'
  4  'y-z, -x, -z'
  5  '-x+z, -y+z, z'
  6  'x-z, y-z, -z'
  7  'y, -x+z, z'
  8  '-y, x-z, -z'
  9  'x-z+1/2, -y+1/2, -z'
  10  '-x+z+1/2, y+1/2, z'
  11  '-y+1/2, -x+1/2, -z'
  12  'y+1/2, x+1/2, z'
  13  '-x+1/2, y-z+1/2, -z'
  14  'x+1/2, -y+z+1/2, z'
  15  'y-z+1/2, x-z+1/2, -z'
  16  '-y+z+1/2, -x+z+1/2, z'
loop_
 _atom_site_type_symbol
 _atom_site_label
 _atom_site_symmetry_multiplicity
 _atom_site_fract_x
 _atom_site_fract_y
 _atom_site_fract_z
 _atom_site_occupancy
  Sr  Sr0  4  0.09973500  0.59973500  0.19947000  1.0
  Sm  Sm1  2  0.25000000  0.75000000  0.50000000  1.0
  Nb  Nb2  2  0.00000000  0.00000000  0.00000000  1.0
  Cu  Cu3  4  0.17991000  0.17991000  0.35982000  1.0
  O  O4  8  0.05943600  0.55943600  0.62793300  1.0
  O  O5  4  0.08380500  0.08380500  0.16761000  1.0
  O  O6  4  0.18058600  0.31941300  0.99999900  1.0
