# generated using pymatgen
data_Sr2YTlCu2O7
_symmetry_space_group_name_H-M   Pmm2
_cell_length_a   3.83375500
_cell_length_b   3.84736500
_cell_length_c   12.19178600
_cell_angle_alpha   90.00000000
_cell_angle_beta   90.00000000
_cell_angle_gamma   90.00000000
_symmetry_Int_Tables_number   25
_chemical_formula_structural   Sr2YTlCu2O7
_chemical_formula_sum   'Sr2 Y1 Tl1 Cu2 O7'
_cell_volume   179.82707332
_cell_formula_units_Z   1
loop_
 _symmetry_equiv_pos_site_id
 _symmetry_equiv_pos_as_xyz
  1  'x, y, z'
  2  '-x, y, -z'
  3  '-x, y, z'
  4  'x, y, -z'
loop_
 _atom_site_type_symbol
 _atom_site_label
 _atom_site_symmetry_multiplicity
 _atom_site_fract_x
 _atom_site_fract_y
 _atom_site_fract_z
 _atom_site_occupancy
  Sr  Sr0  2  0.50000000  0.48459600  0.20705900  1.0
  Y  Y1  1  0.50000000  0.49882700  0.50000000  1.0
  Tl  Tl2  1  0.00000000  0.93192100  0.00000000  1.0
  Cu  Cu3  2  0.00000000  0.99645200  0.36132100  1.0
  O  O4  2  0.00000000  0.49762200  0.37986700  1.0
  O  O5  2  0.00000000  0.99863700  0.17408600  1.0
  O  O6  2  0.50000000  0.99790400  0.38049700  1.0
  O  O7  1  0.50000000  0.55882900  0.00000000  1.0
