# generated using pymatgen
data_Cu3N
_symmetry_space_group_name_H-M   Immm
_cell_length_a   2.85937800
_cell_length_b   3.78982400
_cell_length_c   4.72608034
_cell_angle_alpha   113.63744984
_cell_angle_beta   107.60845309
_cell_angle_gamma   89.99999999
_symmetry_Int_Tables_number   71
_chemical_formula_structural   Cu3N
_chemical_formula_sum   'Cu3 N1'
_cell_volume   44.28570713
_cell_formula_units_Z   1
loop_
 _symmetry_equiv_pos_site_id
 _symmetry_equiv_pos_as_xyz
  1  'x, y, z'
  2  '-x, -y, -z'
  3  '-x+z, -y+z, z'
  4  'x-z, y-z, -z'
  5  'x-z, -y, -z'
  6  '-x+z, y, z'
  7  '-x, y-z, -z'
  8  'x, -y+z, z'
loop_
 _atom_site_type_symbol
 _atom_site_label
 _atom_site_symmetry_multiplicity
 _atom_site_fract_x
 _atom_site_fract_y
 _atom_site_fract_z
 _atom_site_occupancy
  Cu  Cu0  2  0.32092800  0.32092800  0.64185600  1.0
  Cu  Cu1  1  0.00000000  0.00000000  0.00000000  1.0
  N  N2  1  0.00000000  0.50000000  0.00000000  1.0
