# generated using pymatgen
data_Cu3N
_symmetry_space_group_name_H-M   P4/mmm
_cell_length_a   7.41026200
_cell_length_b   7.44672800
_cell_length_c   7.44672800
_cell_angle_alpha   90.00000000
_cell_angle_beta   90.00000000
_cell_angle_gamma   90.00000000
_symmetry_Int_Tables_number   123
_chemical_formula_structural   Cu3N
_chemical_formula_sum   'Cu24 N8'
_cell_volume   410.92687497
_cell_formula_units_Z   8
loop_
 _symmetry_equiv_pos_site_id
 _symmetry_equiv_pos_as_xyz
  1  'x, y, z'
  2  '-x, -y, -z'
  3  'x, -z, y'
  4  '-x, z, -y'
  5  'x, -y, -z'
  6  '-x, y, z'
  7  'x, z, -y'
  8  '-x, -z, y'
  9  '-x, y, -z'
  10  'x, -y, z'
  11  '-x, -z, -y'
  12  'x, z, y'
  13  '-x, -y, z'
  14  'x, y, -z'
  15  '-x, z, y'
  16  'x, -z, -y'
loop_
 _atom_site_type_symbol
 _atom_site_label
 _atom_site_symmetry_multiplicity
 _atom_site_fract_x
 _atom_site_fract_y
 _atom_site_fract_z
 _atom_site_occupancy
  Cu  Cu0  8  0.26842100  0.23925300  0.23925300  1.0
  Cu  Cu1  4  0.00000000  0.00000000  0.24516000  1.0
  Cu  Cu2  4  0.00000000  0.25528800  0.50000000  1.0
  Cu  Cu3  4  0.25504600  0.00000000  0.50000000  1.0
  Cu  Cu4  4  0.50000000  0.25135400  0.50000000  1.0
  N  N5  2  0.00000000  0.00000000  0.50000000  1.0
  N  N6  2  0.50000000  0.00000000  0.50000000  1.0
  N  N7  1  0.00000000  0.00000000  0.00000000  1.0
  N  N8  1  0.00000000  0.50000000  0.50000000  1.0
  N  N9  1  0.50000000  0.00000000  0.00000000  1.0
  N  N10  1  0.50000000  0.50000000  0.50000000  1.0
