# generated using pymatgen
data_Sr4Tb0.04Y1.96Cu6Pb4O16
_symmetry_space_group_name_H-M   Pmna
_cell_length_a   5.41574400
_cell_length_b   5.48836700
_cell_length_c   15.95109600
_cell_angle_alpha   90.00000000
_cell_angle_beta   90.00000000
_cell_angle_gamma   90.00000000
_symmetry_Int_Tables_number   53
_chemical_formula_structural   Sr4Tb0.04Y1.96Cu6Pb4O16
_chemical_formula_sum   'Sr4 Tb0.04 Y1.96 Cu6 Pb4 O16'
_cell_volume   474.12384792
_cell_formula_units_Z   1
loop_
 _symmetry_equiv_pos_site_id
 _symmetry_equiv_pos_as_xyz
  1  'x, y, z'
  2  '-x, -y, -z'
  3  '-x+1/2, y+1/2, -z'
  4  'x+1/2, -y+1/2, z'
  5  'x, -y, -z'
  6  '-x, y, z'
  7  '-x+1/2, -y+1/2, z'
  8  'x+1/2, y+1/2, -z'
loop_
 _atom_site_type_symbol
 _atom_site_label
 _atom_site_symmetry_multiplicity
 _atom_site_fract_x
 _atom_site_fract_y
 _atom_site_fract_z
 _atom_site_occupancy
  Sr  Sr0  4  0.00000000  0.00332600  0.77897200  1.0
  Y  Y1  2  0.00000000  0.00000000  0.00000000  0.98
  Tb  Tb2  2  0.00000000  0.00000000  0.00000000  0.02
  Cu  Cu3  4  0.00000000  0.49916300  0.10394000  1.0
  Cu  Cu4  2  0.00000000  0.00000000  0.50000000  1.0
  Pb  Pb5  4  0.00000000  0.49316200  0.61144300  1.0
  O  O6  4  0.00000000  0.06668100  0.61495800  1.0
  O  O7  4  0.00000000  0.48832700  0.25145000  1.0
  O  O8  4  0.25000000  0.25000000  0.09072900  1.0
  O  O9  4  0.25000000  0.25000000  0.90770600  1.0
