# generated using pymatgen
data_Sr2PrCu3(PbO4)2
_symmetry_space_group_name_H-M   P-1
_cell_length_a   3.86580500
_cell_length_b   3.90250611
_cell_length_c   16.03698769
_cell_angle_alpha   88.98069051
_cell_angle_beta   89.44168111
_cell_angle_gamma   89.50931386
_symmetry_Int_Tables_number   2
_chemical_formula_structural   Sr2PrCu3(PbO4)2
_chemical_formula_sum   'Sr2 Pr1 Cu3 Pb2 O8'
_cell_volume   241.88096195
_cell_formula_units_Z   1
loop_
 _symmetry_equiv_pos_site_id
 _symmetry_equiv_pos_as_xyz
  1  'x, y, z'
  2  '-x, -y, -z'
loop_
 _atom_site_type_symbol
 _atom_site_label
 _atom_site_symmetry_multiplicity
 _atom_site_fract_x
 _atom_site_fract_y
 _atom_site_fract_z
 _atom_site_occupancy
  Sr  Sr0  2  0.00213000  0.00783700  0.77593900  1.0
  Pr  Pr1  1  0.00000000  0.00000000  0.00000000  1.0
  Cu  Cu2  2  0.49958500  0.49874600  0.11051900  1.0
  Cu  Cu3  1  0.00000000  0.00000000  0.50000000  1.0
  Pb  Pb4  2  0.49497700  0.50393400  0.38943700  1.0
  O  O5  2  0.00029700  0.49674800  0.09828800  1.0
  O  O6  2  0.02901900  0.09721800  0.61249300  1.0
  O  O7  2  0.49838600  0.48973200  0.25347600  1.0
  O  O8  2  0.49915500  0.00014200  0.90122100  1.0
