# generated using pymatgen
data_Cu3Sn
_symmetry_space_group_name_H-M   Cmcm
_cell_length_a   4.33293300
_cell_length_b   5.63911000
_cell_length_c   24.06793480
_cell_angle_alpha   96.72764081
_cell_angle_beta   90.00000000
_cell_angle_gamma   90.00000000
_symmetry_Int_Tables_number   63
_chemical_formula_structural   Cu3Sn
_chemical_formula_sum   'Cu30 Sn10'
_cell_volume   584.02384533
_cell_formula_units_Z   10
loop_
 _symmetry_equiv_pos_site_id
 _symmetry_equiv_pos_as_xyz
  1  'x, y, z'
  2  '-x, -y, -z'
  3  'x+1/2, -y, -z'
  4  '-x+1/2, y, z'
  5  '-x, y-z, -z'
  6  'x, -y+z, z'
  7  '-x+1/2, -y+z, z'
  8  'x+1/2, y-z, -z'
loop_
 _atom_site_type_symbol
 _atom_site_label
 _atom_site_symmetry_multiplicity
 _atom_site_fract_x
 _atom_site_fract_y
 _atom_site_fract_z
 _atom_site_occupancy
  Cu  Cu0  4  0.25000000  0.03792600  0.56918700  1.0
  Cu  Cu1  4  0.25000000  0.13576200  0.76920000  1.0
  Cu  Cu2  4  0.25000000  0.24663600  0.96882500  1.0
  Cu  Cu3  4  0.25000000  0.32807700  0.16870300  1.0
  Cu  Cu4  4  0.25000000  0.43060600  0.36902600  1.0
  Cu  Cu5  2  0.25000000  0.53018200  0.06036400  1.0
  Cu  Cu6  2  0.25000000  0.62919800  0.25839600  1.0
  Cu  Cu7  2  0.25000000  0.72947800  0.45895600  1.0
  Cu  Cu8  2  0.25000000  0.82970100  0.65940200  1.0
  Cu  Cu9  2  0.25000000  0.93039600  0.86079200  1.0
  Sn  Sn10  2  0.25000000  0.03413400  0.06826800  1.0
  Sn  Sn11  2  0.25000000  0.13453900  0.26907800  1.0
  Sn  Sn12  2  0.25000000  0.23452200  0.46904400  1.0
  Sn  Sn13  2  0.25000000  0.33453000  0.66906000  1.0
  Sn  Sn14  2  0.25000000  0.43380800  0.86761600  1.0
