# generated using pymatgen
data_Cu2Te1.5
_symmetry_space_group_name_H-M   Pmmn
_cell_length_a   3.86967900
_cell_length_b   3.90251400
_cell_length_c   5.44200800
_cell_angle_alpha   90.00000000
_cell_angle_beta   90.00000000
_cell_angle_gamma   90.00000000
_symmetry_Int_Tables_number   59
_chemical_formula_structural   Cu2Te1.5
_chemical_formula_sum   'Cu2 Te1.5'
_cell_volume   82.18235578
_cell_formula_units_Z   1
loop_
 _symmetry_equiv_pos_site_id
 _symmetry_equiv_pos_as_xyz
  1  'x, y, z'
  2  '-x, y, -z'
  3  'x+1/2, -y, -z+1/2'
  4  '-x+1/2, -y, z+1/2'
  5  '-x+1/2, -y, -z+1/2'
  6  'x+1/2, -y, z+1/2'
  7  '-x, y, z'
  8  'x, y, -z'
loop_
 _atom_site_type_symbol
 _atom_site_label
 _atom_site_symmetry_multiplicity
 _atom_site_fract_x
 _atom_site_fract_y
 _atom_site_fract_z
 _atom_site_occupancy
  Cu  Cu0  2  0.00000000  0.70873000  0.50000000  1.0
  Te  Te1  2  0.00000000  0.78282400  0.00000000  0.75
