# generated using pymatgen
data_ZrCu
_symmetry_space_group_name_H-M   P2_1/m
_cell_length_a   3.24218900
_cell_length_b   4.13821600
_cell_length_c   5.50956305
_cell_angle_alpha   90.00000000
_cell_angle_beta   105.91045010
_cell_angle_gamma   90.00000000
_symmetry_Int_Tables_number   11
_chemical_formula_structural   ZrCu
_chemical_formula_sum   'Zr2 Cu2'
_cell_volume   71.08931673
_cell_formula_units_Z   2
loop_
 _symmetry_equiv_pos_site_id
 _symmetry_equiv_pos_as_xyz
  1  'x, y, z'
  2  '-x, -y, -z'
  3  '-x, y+1/2, -z'
  4  'x, -y+1/2, z'
loop_
 _atom_site_type_symbol
 _atom_site_label
 _atom_site_symmetry_multiplicity
 _atom_site_fract_x
 _atom_site_fract_y
 _atom_site_fract_z
 _atom_site_occupancy
  Zr  Zr0  2  0.35259800  0.25000000  0.19367500  1.0
  Cu  Cu1  2  0.05921700  0.25000000  0.63769700  1.0
