# generated using pymatgen
data_ZrCu
_symmetry_space_group_name_H-M   Cm
_cell_length_a   5.28213010
_cell_length_b   5.32613812
_cell_length_c   5.32613812
_cell_angle_alpha   76.36229130
_cell_angle_beta   82.36124073
_cell_angle_gamma   97.63875927
_symmetry_Int_Tables_number   8
_chemical_formula_structural   ZrCu
_chemical_formula_sum   'Zr4 Cu4'
_cell_volume   142.21080333
_cell_formula_units_Z   4
loop_
 _symmetry_equiv_pos_site_id
 _symmetry_equiv_pos_as_xyz
  1  'x, y, z'
  2  'x, -z, -y'
loop_
 _atom_site_type_symbol
 _atom_site_label
 _atom_site_symmetry_multiplicity
 _atom_site_fract_x
 _atom_site_fract_y
 _atom_site_fract_z
 _atom_site_occupancy
  Zr  Zr0  2  0.40749100  0.17400100  0.25572100  1.0
  Zr  Zr1  1  0.03374400  0.58558900  0.41441100  1.0
  Zr  Zr2  1  0.97919000  0.08607700  0.91392300  1.0
  Cu  Cu3  2  0.85291000  0.04817700  0.45146700  1.0
  Cu  Cu4  1  0.54203700  0.29393100  0.70606900  1.0
  Cu  Cu5  1  0.56869300  0.69593400  0.30406600  1.0
