# generated using pymatgen
data_Sr2Cu3O5
_symmetry_space_group_name_H-M   Immm
_cell_length_a   3.45973400
_cell_length_b   3.95162000
_cell_length_c   9.71127652
_cell_angle_alpha   101.73908462
_cell_angle_beta   100.26084040
_cell_angle_gamma   90.00000000
_symmetry_Int_Tables_number   71
_chemical_formula_structural   Sr2Cu3O5
_chemical_formula_sum   'Sr2 Cu3 O5'
_cell_volume   127.82181195
_cell_formula_units_Z   1
loop_
 _symmetry_equiv_pos_site_id
 _symmetry_equiv_pos_as_xyz
  1  'x, y, z'
  2  '-x, -y, -z'
  3  '-x+z, -y+z, z'
  4  'x-z, y-z, -z'
  5  'x-z, -y, -z'
  6  '-x+z, y, z'
  7  '-x, y-z, -z'
  8  'x, -y+z, z'
loop_
 _atom_site_type_symbol
 _atom_site_label
 _atom_site_symmetry_multiplicity
 _atom_site_fract_x
 _atom_site_fract_y
 _atom_site_fract_z
 _atom_site_occupancy
  Sr  Sr0  2  0.39422500  0.39422500  0.78845000  1.0
  Cu  Cu1  2  0.21206200  0.21206200  0.42412400  1.0
  Cu  Cu2  1  0.00000000  0.00000000  0.00000000  1.0
  O  O3  2  0.10383300  0.10383300  0.20766600  1.0
  O  O4  2  0.21917600  0.71917600  0.43835200  1.0
  O  O5  1  0.00000000  0.50000000  0.00000000  1.0
