# generated using pymatgen
data_ThCu6
_symmetry_space_group_name_H-M   Pnma
_cell_length_a   5.07840600
_cell_length_b   8.10591300
_cell_length_c   10.11906000
_cell_angle_alpha   90.00000000
_cell_angle_beta   90.00000000
_cell_angle_gamma   90.00000000
_symmetry_Int_Tables_number   62
_chemical_formula_structural   ThCu6
_chemical_formula_sum   'Th4 Cu24'
_cell_volume   416.55229100
_cell_formula_units_Z   4
loop_
 _symmetry_equiv_pos_site_id
 _symmetry_equiv_pos_as_xyz
  1  'x, y, z'
  2  '-x, -y, -z'
  3  '-x, -y+1/2, z+1/2'
  4  'x, y+1/2, -z+1/2'
  5  '-x+1/2, y+1/2, -z+1/2'
  6  'x+1/2, -y+1/2, z+1/2'
  7  'x+1/2, -y, -z'
  8  '-x+1/2, y, z'
loop_
 _atom_site_type_symbol
 _atom_site_label
 _atom_site_symmetry_multiplicity
 _atom_site_fract_x
 _atom_site_fract_y
 _atom_site_fract_z
 _atom_site_occupancy
  Th  Th0  4  0.25000000  0.26010800  0.56466800  1.0
  Cu  Cu1  8  0.00523500  0.43585800  0.80850600  1.0
  Cu  Cu2  4  0.25000000  0.06227100  0.09643300  1.0
  Cu  Cu3  4  0.25000000  0.14611900  0.85725200  1.0
  Cu  Cu4  4  0.25000000  0.31721700  0.25606000  1.0
  Cu  Cu5  4  0.25000000  0.40140600  0.01535900  1.0
