# generated using pymatgen
data_Dy2Si5Rh3
_symmetry_space_group_name_H-M   C2/c
_cell_length_a   5.69306856
_cell_length_b   8.11737574
_cell_length_c   8.11737574
_cell_angle_alpha   93.33997496
_cell_angle_beta   108.90982736
_cell_angle_gamma   108.90982736
_symmetry_Int_Tables_number   15
_chemical_formula_structural   Dy2Si5Rh3
_chemical_formula_sum   'Dy4 Si10 Rh6'
_cell_volume   330.09264193
_cell_formula_units_Z   2
loop_
 _symmetry_equiv_pos_site_id
 _symmetry_equiv_pos_as_xyz
  1  'x, y, z'
  2  '-x, -y, -z'
  3  '-x+1/2, -z, -y'
  4  'x+1/2, z, y'
loop_
 _atom_site_type_symbol
 _atom_site_label
 _atom_site_symmetry_multiplicity
 _atom_site_fract_x
 _atom_site_fract_y
 _atom_site_fract_z
 _atom_site_occupancy
  Dy  Dy0  4  0.23811000  0.59799100  0.86694200  1.0
  Si  Si1  4  0.16224500  0.26622300  0.05881700  1.0
  Si  Si2  2  0.25000000  0.22285400  0.77714600  1.0
  Si  Si3  2  0.25000000  0.48834200  0.51165800  1.0
  Si  Si4  2  0.25000000  0.79030600  0.20969400  1.0
  Rh  Rh5  4  0.12498400  0.73967500  0.45956800  1.0
  Rh  Rh6  2  0.25000000  0.99821700  0.00178300  1.0
