# generated using pymatgen
data_Dy2Si5Rh3
_symmetry_space_group_name_H-M   Ibam
_cell_length_a   5.76087800
_cell_length_b   8.15550055
_cell_length_c   8.15550055
_cell_angle_alpha   74.67062228
_cell_angle_beta   69.31746243
_cell_angle_gamma   69.31746243
_symmetry_Int_Tables_number   72
_chemical_formula_structural   Dy2Si5Rh3
_chemical_formula_sum   'Dy4 Si10 Rh6'
_cell_volume   331.07626249
_cell_formula_units_Z   2
loop_
 _symmetry_equiv_pos_site_id
 _symmetry_equiv_pos_as_xyz
  1  'x, y, z'
  2  '-x, -y, -z'
  3  'x+y+z, -y, -z'
  4  '-x-y-z, y, z'
  5  '-x+1/2, -z, -y'
  6  'x+1/2, z, y'
  7  '-x-y-z+1/2, z, y'
  8  'x+y+z+1/2, -z, -y'
loop_
 _atom_site_type_symbol
 _atom_site_label
 _atom_site_symmetry_multiplicity
 _atom_site_fract_x
 _atom_site_fract_y
 _atom_site_fract_z
 _atom_site_occupancy
  Dy  Dy0  4  0.13213100  0.59946300  0.13627500  1.0
  Si  Si1  4  0.02860800  0.22139200  0.22139200  1.0
  Si  Si2  4  0.10591200  0.05182600  0.73635000  1.0
  Si  Si3  2  0.25000000  0.50000000  0.50000000  1.0
  Rh  Rh4  4  0.14002900  0.25090700  0.46903600  1.0
  Rh  Rh5  2  0.25000000  0.00000000  0.00000000  1.0
