# generated using pymatgen
data_Y1.6Er0.4Sn2Pd4
_symmetry_space_group_name_H-M   R-3m
_cell_length_a   4.80869994
_cell_length_b   4.80869994
_cell_length_c   8.28866616
_cell_angle_alpha   73.13744000
_cell_angle_beta   73.13744000
_cell_angle_gamma   60.00000083
_symmetry_Int_Tables_number   166
_chemical_formula_structural   Y1.6Er0.4Sn2Pd4
_chemical_formula_sum   'Y1.6 Er0.4 Sn2 Pd4'
_cell_volume   156.39755821
_cell_formula_units_Z   1
loop_
 _symmetry_equiv_pos_site_id
 _symmetry_equiv_pos_as_xyz
  1  'x, y, z'
  2  '-x, -y, -z'
  3  '-x-y-z, x, z'
  4  'x+y+z, -x, -z'
  5  'y, -x-y-z, z'
  6  '-y, x+y+z, -z'
  7  '-x, x+y+z, -z'
  8  'x, -x-y-z, z'
  9  'x+y+z, -y, -z'
  10  '-x-y-z, y, z'
  11  '-y, -x, -z'
  12  'y, x, z'
loop_
 _atom_site_type_symbol
 _atom_site_label
 _atom_site_symmetry_multiplicity
 _atom_site_fract_x
 _atom_site_fract_y
 _atom_site_fract_z
 _atom_site_occupancy
  Y  Y0  1  0.50000000  0.50000000  0.50000000  1.0
  Er  Er1  1  0.00000000  0.00000000  0.00000000  0.4
  Y  Y2  1  0.00000000  0.00000000  0.00000000  0.6
  Sn  Sn3  2  0.25003700  0.25003700  0.24988900  1.0
  Pd  Pd4  2  0.12469600  0.12469600  0.62591200  1.0
  Pd  Pd5  2  0.37449200  0.37449200  0.87652400  1.0
