# generated using pymatgen
data_ErSiRh
_symmetry_space_group_name_H-M   Pnma
_cell_length_a   4.22441400
_cell_length_b   6.84521900
_cell_length_c   7.39847900
_cell_angle_alpha   90.00000000
_cell_angle_beta   90.00000000
_cell_angle_gamma   90.00000000
_symmetry_Int_Tables_number   62
_chemical_formula_structural   ErSiRh
_chemical_formula_sum   'Er4 Si4 Rh4'
_cell_volume   213.94210561
_cell_formula_units_Z   4
loop_
 _symmetry_equiv_pos_site_id
 _symmetry_equiv_pos_as_xyz
  1  'x, y, z'
  2  '-x, -y, -z'
  3  '-x, -y+1/2, z+1/2'
  4  'x, y+1/2, -z+1/2'
  5  '-x+1/2, y+1/2, -z+1/2'
  6  'x+1/2, -y+1/2, z+1/2'
  7  'x+1/2, -y, -z'
  8  '-x+1/2, y, z'
loop_
 _atom_site_type_symbol
 _atom_site_label
 _atom_site_symmetry_multiplicity
 _atom_site_fract_x
 _atom_site_fract_y
 _atom_site_fract_z
 _atom_site_occupancy
  Er  Er0  4  0.25000000  0.00095800  0.80964800  1.0
  Si  Si1  4  0.25000000  0.29385800  0.10526800  1.0
  Rh  Rh2  4  0.25000000  0.15437000  0.43105500  1.0
