# generated using pymatgen
data_Er5Sn18Rh5.5
_symmetry_space_group_name_H-M   F-43m
_cell_length_a   9.87751947
_cell_length_b   9.87751947
_cell_length_c   9.87751947
_cell_angle_alpha   60.00000000
_cell_angle_beta   60.00000000
_cell_angle_gamma   60.00000000
_symmetry_Int_Tables_number   216
_chemical_formula_structural   Er5Sn18Rh5.5
_chemical_formula_sum   'Er5 Sn18 Rh5.5'
_cell_volume   681.44166741
_cell_formula_units_Z   1
loop_
 _symmetry_equiv_pos_site_id
 _symmetry_equiv_pos_as_xyz
  1  'x, y, z'
  2  'y, -x-y-z, x'
  3  '-x-y-z, z, y'
  4  'z, x, -x-y-z'
  5  'y, x, -x-y-z'
  6  '-x-y-z, y, z'
  7  'z, -x-y-z, x'
  8  'x, z, y'
  9  'z, y, -x-y-z'
  10  'x, -x-y-z, z'
  11  'y, z, x'
  12  '-x-y-z, x, y'
  13  '-x-y-z, x, z'
  14  'z, y, x'
  15  'x, -x-y-z, y'
  16  'y, z, -x-y-z'
  17  '-x-y-z, y, x'
  18  'z, -x-y-z, y'
  19  'x, z, -x-y-z'
  20  'y, x, z'
  21  'z, x, y'
  22  'x, y, -x-y-z'
  23  'y, -x-y-z, z'
  24  '-x-y-z, z, x'
loop_
 _atom_site_type_symbol
 _atom_site_label
 _atom_site_symmetry_multiplicity
 _atom_site_fract_x
 _atom_site_fract_y
 _atom_site_fract_z
 _atom_site_occupancy
  Er  Er0  4  0.11040500  0.62986500  0.62986500  1.0
  Er  Er1  1  0.00000000  0.00000000  0.00000000  1.0
  Sn  Sn2  12  0.00864000  0.00864000  0.34146600  1.0
  Sn  Sn3  4  0.41215100  0.41215100  0.41215100  1.0
  Sn  Sn4  1  0.25000000  0.25000000  0.25000000  1.0
  Sn  Sn5  1  0.75000000  0.75000000  0.75000000  1.0
  Rh  Rh6  6  0.25494400  0.25494400  0.74505600  0.9166666666666666
