# generated using pymatgen
data_Er2Fe3Si5
_symmetry_space_group_name_H-M   P4/mnc
_cell_length_a   5.44261500
_cell_length_b   10.32537500
_cell_length_c   10.32537500
_cell_angle_alpha   90.00000000
_cell_angle_beta   90.00000000
_cell_angle_gamma   90.00000000
_symmetry_Int_Tables_number   128
_chemical_formula_structural   Er2Fe3Si5
_chemical_formula_sum   'Er8 Fe12 Si20'
_cell_volume   580.25552072
_cell_formula_units_Z   4
loop_
 _symmetry_equiv_pos_site_id
 _symmetry_equiv_pos_as_xyz
  1  'x, y, z'
  2  '-x, -y, -z'
  3  'x, -z, y'
  4  '-x, z, -y'
  5  'x, -y, -z'
  6  '-x, y, z'
  7  'x, z, -y'
  8  '-x, -z, y'
  9  '-x+1/2, y+1/2, -z+1/2'
  10  'x+1/2, -y+1/2, z+1/2'
  11  '-x+1/2, -z+1/2, -y+1/2'
  12  'x+1/2, z+1/2, y+1/2'
  13  '-x+1/2, -y+1/2, z+1/2'
  14  'x+1/2, y+1/2, -z+1/2'
  15  '-x+1/2, z+1/2, y+1/2'
  16  'x+1/2, -z+1/2, -y+1/2'
loop_
 _atom_site_type_symbol
 _atom_site_label
 _atom_site_symmetry_multiplicity
 _atom_site_fract_x
 _atom_site_fract_y
 _atom_site_fract_z
 _atom_site_occupancy
  Er  Er0  8  0.00000000  0.07025800  0.76425000  1.0
  Fe  Fe1  8  0.00000000  0.35500300  0.37724700  1.0
  Fe  Fe2  4  0.25000000  0.00000000  0.50000000  1.0
  Si  Si3  8  0.00000000  0.18065600  0.52328300  1.0
  Si  Si4  8  0.25000000  0.17663000  0.32337000  1.0
  Si  Si5  4  0.23474700  0.50000000  0.50000000  1.0
