# generated using pymatgen
data_Er3Ni
_symmetry_space_group_name_H-M   Pnma
_cell_length_a   6.27103600
_cell_length_b   6.75425900
_cell_length_c   9.45578600
_cell_angle_alpha   90.00000000
_cell_angle_beta   90.00000000
_cell_angle_gamma   90.00000000
_symmetry_Int_Tables_number   62
_chemical_formula_structural   Er3Ni
_chemical_formula_sum   'Er12 Ni4'
_cell_volume   400.51117567
_cell_formula_units_Z   4
loop_
 _symmetry_equiv_pos_site_id
 _symmetry_equiv_pos_as_xyz
  1  'x, y, z'
  2  '-x, -y, -z'
  3  'x+1/2, -y+1/2, -z'
  4  '-x+1/2, y+1/2, z'
  5  '-x+1/2, y+1/2, -z+1/2'
  6  'x+1/2, -y+1/2, z+1/2'
  7  '-x, -y, z+1/2'
  8  'x, y, -z+1/2'
loop_
 _atom_site_type_symbol
 _atom_site_label
 _atom_site_symmetry_multiplicity
 _atom_site_fract_x
 _atom_site_fract_y
 _atom_site_fract_z
 _atom_site_occupancy
  Er  Er0  8  0.17926700  0.17850100  0.06550000  1.0
  Er  Er1  4  0.13872600  0.46728400  0.75000000  1.0
  Ni  Ni2  4  0.05652300  0.89176800  0.25000000  1.0
