# generated using pymatgen
data_Er5(Si5Ir2)2
_symmetry_space_group_name_H-M   P4/mbm
_cell_length_a   4.24603500
_cell_length_b   12.61710400
_cell_length_c   12.61710400
_cell_angle_alpha   90.00000000
_cell_angle_beta   90.00000000
_cell_angle_gamma   90.00000000
_symmetry_Int_Tables_number   127
_chemical_formula_structural   Er5(Si5Ir2)2
_chemical_formula_sum   'Er10 Si20 Ir8'
_cell_volume   675.93188817
_cell_formula_units_Z   2
loop_
 _symmetry_equiv_pos_site_id
 _symmetry_equiv_pos_as_xyz
  1  'x, y, z'
  2  '-x, -y, -z'
  3  'x, -z, y'
  4  '-x, z, -y'
  5  'x, -y, -z'
  6  '-x, y, z'
  7  'x, z, -y'
  8  '-x, -z, y'
  9  '-x, y+1/2, -z+1/2'
  10  'x, -y+1/2, z+1/2'
  11  '-x, -z+1/2, -y+1/2'
  12  'x, z+1/2, y+1/2'
  13  '-x, -y+1/2, z+1/2'
  14  'x, y+1/2, -z+1/2'
  15  '-x, z+1/2, y+1/2'
  16  'x, -z+1/2, -y+1/2'
loop_
 _atom_site_type_symbol
 _atom_site_label
 _atom_site_symmetry_multiplicity
 _atom_site_fract_x
 _atom_site_fract_y
 _atom_site_fract_z
 _atom_site_occupancy
  Er  Er0  4  0.50000000  0.11588500  0.61588500  1.0
  Er  Er1  4  0.50000000  0.17512900  0.32487100  1.0
  Er  Er2  2  0.00000000  0.00000000  0.00000000  1.0
  Si  Si3  8  0.00000000  0.16398400  0.79951500  1.0
  Si  Si4  8  0.50000000  0.00375500  0.15611300  1.0
  Si  Si5  4  0.00000000  0.06545400  0.43454600  1.0
  Ir  Ir6  8  0.00000000  0.02047700  0.24589300  1.0
