# generated using pymatgen
data_Eu
_symmetry_space_group_name_H-M   R-3c
_cell_length_a   6.66339789
_cell_length_b   7.18804069
_cell_length_c   7.18804069
_cell_angle_alpha   69.09773419
_cell_angle_beta   72.00078853
_cell_angle_gamma   107.99921147
_symmetry_Int_Tables_number   167
_chemical_formula_structural   Eu
_chemical_formula_sum   Eu6
_cell_volume   269.68944357
_cell_formula_units_Z   6
loop_
 _symmetry_equiv_pos_site_id
 _symmetry_equiv_pos_as_xyz
  1  'x, y, z'
  2  '-x, -y, -z'
  3  'x+z, z, -y-z'
  4  '-x-z, -z, y+z'
  5  'x-y, -y-z, y'
  6  '-x+y, y+z, -y'
  7  '-x+1/2, z, y'
  8  'x+1/2, -z, -y'
  9  '-x-z+1/2, -y-z, z'
  10  'x+z+1/2, y+z, -z'
  11  '-x+y+1/2, y, -y-z'
  12  'x-y+1/2, -y, y+z'
loop_
 _atom_site_type_symbol
 _atom_site_label
 _atom_site_symmetry_multiplicity
 _atom_site_fract_x
 _atom_site_fract_y
 _atom_site_fract_z
 _atom_site_occupancy
  Eu  Eu0  6  0.06319100  0.62638200  0.18680900  1.0
