# generated using pymatgen
data_U12Fe0.5Ni1.5
_symmetry_space_group_name_H-M   I422
_cell_length_a   5.19789500
_cell_length_b   7.65391354
_cell_length_c   7.65391388
_cell_angle_alpha   83.37909282
_cell_angle_beta   70.15005020
_cell_angle_gamma   70.15005722
_symmetry_Int_Tables_number   97
_chemical_formula_structural   U12Fe0.5Ni1.5
_chemical_formula_sum   'U12 Fe0.5 Ni1.5'
_cell_volume   269.39581060
_cell_formula_units_Z   1
loop_
 _symmetry_equiv_pos_site_id
 _symmetry_equiv_pos_as_xyz
  1  'x, y, z'
  2  'x+z, -z, y'
  3  'x+y+z, -y, -z'
  4  'x+y, z, -y'
  5  '-x+1/2, -z, -y'
  6  '-x-z+1/2, -y, z'
  7  '-x-y-z+1/2, z, y'
  8  '-x-y+1/2, y, -z'
loop_
 _atom_site_type_symbol
 _atom_site_label
 _atom_site_symmetry_multiplicity
 _atom_site_fract_x
 _atom_site_fract_y
 _atom_site_fract_z
 _atom_site_occupancy
  U  U0  8  0.10607100  0.67873200  0.11503700  1.0
  U  U1  4  0.09381600  0.31236800  0.50000000  1.0
  Fe  Fe2  1  0.25000000  0.00000000  0.00000000  0.5
  Ni  Ni3  1  0.25000000  0.00000000  0.00000000  0.5
  Ni  Ni4  1  0.75000000  0.00000000  0.00000000  1.0
