# generated using pymatgen
data_Zr4Fe0.8P4Ru3.2
_symmetry_space_group_name_H-M   Pnma
_cell_length_a   3.89677100
_cell_length_b   6.47655900
_cell_length_c   7.37843500
_cell_angle_alpha   90.00000000
_cell_angle_beta   90.00000000
_cell_angle_gamma   90.00000000
_symmetry_Int_Tables_number   62
_chemical_formula_structural   Zr4Fe0.8P4Ru3.2
_chemical_formula_sum   'Zr4 Fe0.8 P4 Ru3.2'
_cell_volume   186.21448766
_cell_formula_units_Z   1
loop_
 _symmetry_equiv_pos_site_id
 _symmetry_equiv_pos_as_xyz
  1  'x, y, z'
  2  '-x, -y, -z'
  3  '-x, -y+1/2, z+1/2'
  4  'x, y+1/2, -z+1/2'
  5  '-x+1/2, y+1/2, -z+1/2'
  6  'x+1/2, -y+1/2, z+1/2'
  7  'x+1/2, -y, -z'
  8  '-x+1/2, y, z'
loop_
 _atom_site_type_symbol
 _atom_site_label
 _atom_site_symmetry_multiplicity
 _atom_site_fract_x
 _atom_site_fract_y
 _atom_site_fract_z
 _atom_site_occupancy
  Zr  Zr0  4  0.25000000  0.47763800  0.68102300  1.0
  Ru  Ru1  4  0.25000000  0.34893500  0.06038900  0.8
  Fe  Fe2  4  0.25000000  0.34893500  0.06038900  0.2
  P  P3  4  0.25000000  0.22433300  0.37851000  1.0
