# generated using pymatgen
data_Fe
_symmetry_space_group_name_H-M   P1
_cell_length_a   10.40633058
_cell_length_b   10.45599052
_cell_length_c   10.70864261
_cell_angle_alpha   92.01596209
_cell_angle_beta   90.48748287
_cell_angle_gamma   91.19110178
_symmetry_Int_Tables_number   1
_chemical_formula_structural   Fe
_chemical_formula_sum   Fe100
_cell_volume   1164.16870679
_cell_formula_units_Z   100
loop_
 _symmetry_equiv_pos_site_id
 _symmetry_equiv_pos_as_xyz
  1  'x, y, z'
loop_
 _atom_site_type_symbol
 _atom_site_label
 _atom_site_symmetry_multiplicity
 _atom_site_fract_x
 _atom_site_fract_y
 _atom_site_fract_z
 _atom_site_occupancy
  Fe  Fe0  1  0.00416400  0.60283400  0.09001900  1.0
  Fe  Fe1  1  0.00584300  0.77683800  0.51916000  1.0
  Fe  Fe2  1  0.00620300  0.59551200  0.87542300  1.0
  Fe  Fe3  1  0.01708400  0.66110600  0.31798000  1.0
  Fe  Fe4  1  0.02223000  0.05357200  0.49374100  1.0
  Fe  Fe5  1  0.02564100  0.39788800  0.18726500  1.0
  Fe  Fe6  1  0.03331000  0.87341000  0.92800300  1.0
  Fe  Fe7  1  0.03503700  0.96187200  0.71412900  1.0
  Fe  Fe8  1  0.04286800  0.35202300  0.79066500  1.0
  Fe  Fe9  1  0.08844800  0.82797700  0.16770600  1.0
  Fe  Fe10  1  0.10057000  0.27044500  0.01139800  1.0
  Fe  Fe11  1  0.10159400  0.10686600  0.17483100  1.0
  Fe  Fe12  1  0.12077300  0.17599400  0.66939400  1.0
  Fe  Fe13  1  0.12402500  0.73530000  0.73151600  1.0
  Fe  Fe14  1  0.12789200  0.23925800  0.38115000  1.0
  Fe  Fe15  1  0.14644100  0.08512000  0.89979700  1.0
  Fe  Fe16  1  0.14879400  0.38634400  0.56371200  1.0
  Fe  Fe17  1  0.16926800  0.96052100  0.34486400  1.0
  Fe  Fe18  1  0.17231100  0.61705900  0.53943200  1.0
  Fe  Fe19  1  0.17856300  0.47606200  0.34927300  1.0
  Fe  Fe20  1  0.18619100  0.47548300  0.99483900  1.0
  Fe  Fe21  1  0.19971800  0.52004600  0.76451600  1.0
  Fe  Fe22  1  0.19972400  0.72347700  0.96775900  1.0
  Fe  Fe23  1  0.21326300  0.89679200  0.57770100  1.0
  Fe  Fe24  1  0.21343100  0.61967000  0.18185800  1.0
  Fe  Fe25  1  0.24486100  0.74979600  0.36980700  1.0
  Fe  Fe26  1  0.24549400  0.95767400  0.04984300  1.0
  Fe  Fe27  1  0.24749000  0.31096200  0.18489000  1.0
  Fe  Fe28  1  0.25375300  0.90111300  0.81979500  1.0
  Fe  Fe29  1  0.26086500  0.30357300  0.85259400  1.0
  Fe  Fe30  1  0.27685800  0.12058300  0.49981000  1.0
  Fe  Fe31  1  0.32244600  0.10124100  0.75496000  1.0
  Fe  Fe32  1  0.33028500  0.17271700  0.02821600  1.0
  Fe  Fe33  1  0.33293000  0.29661100  0.64239200  1.0
  Fe  Fe34  1  0.33347600  0.10644500  0.26454000  1.0
  Fe  Fe35  1  0.34759100  0.81525800  0.17717500  1.0
  Fe  Fe36  1  0.35003600  0.32263300  0.39685600  1.0
  Fe  Fe37  1  0.36410900  0.69436800  0.76736300  1.0
  Fe  Fe38  1  0.37238000  0.50627000  0.61297600  1.0
  Fe  Fe39  1  0.37592300  0.56514800  0.40965400  1.0
  Fe  Fe40  1  0.38754900  0.48382000  0.21453400  1.0
  Fe  Fe41  1  0.38912700  0.61712100  0.02334700  1.0
  Fe  Fe42  1  0.38933600  0.73752800  0.55213700  1.0
  Fe  Fe43  1  0.41099300  0.94684000  0.45740100  1.0
  Fe  Fe44  1  0.41649300  0.48371300  0.82821900  1.0
  Fe  Fe45  1  0.42054600  0.38512200  0.01174200  1.0
  Fe  Fe46  1  0.43180600  0.83278400  0.94062200  1.0
  Fe  Fe47  1  0.44655300  0.90841700  0.68593900  1.0
  Fe  Fe48  1  0.48033000  0.13076300  0.60538500  1.0
  Fe  Fe49  1  0.48959900  0.01150500  0.07936400  1.0
  Fe  Fe50  1  0.50098200  0.27742100  0.78994900  1.0
  Fe  Fe51  1  0.50636800  0.74002400  0.34267600  1.0
  Fe  Fe52  1  0.50743000  0.95926900  0.27078000  1.0
  Fe  Fe53  1  0.50808400  0.28020900  0.21534200  1.0
  Fe  Fe54  1  0.52691700  0.36483800  0.52108700  1.0
  Fe  Fe55  1  0.53123400  0.03882400  0.85227700  1.0
  Fe  Fe56  1  0.53921600  0.14752800  0.40357000  1.0
  Fe  Fe57  1  0.56758000  0.21791700  0.00970000  1.0
  Fe  Fe58  1  0.56778100  0.60395000  0.53871400  1.0
  Fe  Fe59  1  0.57248300  0.72820600  0.12737100  1.0
  Fe  Fe60  1  0.58162900  0.63288700  0.91083000  1.0
  Fe  Fe61  1  0.58667900  0.50307500  0.11818500  1.0
  Fe  Fe62  1  0.59635300  0.50577700  0.33994500  1.0
  Fe  Fe63  1  0.60179200  0.82037100  0.54405400  1.0
  Fe  Fe64  1  0.60350700  0.47777400  0.71314000  1.0
  Fe  Fe65  1  0.64341700  0.78567900  0.75676900  1.0
  Fe  Fe66  1  0.64508600  0.87341800  0.96616600  1.0
  Fe  Fe67  1  0.65754500  0.40402300  0.91910300  1.0
  Fe  Fe68  1  0.65868300  0.02026300  0.65236500  1.0
  Fe  Fe69  1  0.67665600  0.93863200  0.39582700  1.0
  Fe  Fe70  1  0.68777900  0.24925700  0.61014700  1.0
  Fe  Fe71  1  0.70178000  0.12192100  0.23254800  1.0
  Fe  Fe72  1  0.71212700  0.90055600  0.18085100  1.0
  Fe  Fe73  1  0.71232100  0.18951500  0.82798500  1.0
  Fe  Fe74  1  0.72035900  0.31207000  0.37880000  1.0
  Fe  Fe75  1  0.73213400  0.07659600  0.01562900  1.0
  Fe  Fe76  1  0.73744300  0.33352100  0.13239500  1.0
  Fe  Fe77  1  0.75971200  0.46950900  0.53223200  1.0
  Fe  Fe78  1  0.76220900  0.70725000  0.38581200  1.0
  Fe  Fe79  1  0.77286200  0.68142800  0.60611400  1.0
  Fe  Fe80  1  0.77944800  0.56616500  0.03544500  1.0
  Fe  Fe81  1  0.78493000  0.58304200  0.80739600  1.0
  Fe  Fe82  1  0.78800200  0.10774200  0.46486900  1.0
  Fe  Fe83  1  0.80561500  0.95957600  0.82605400  1.0
  Fe  Fe84  1  0.81111700  0.51596200  0.26001000  1.0
  Fe  Fe85  1  0.82153600  0.37245200  0.75253300  1.0
  Fe  Fe86  1  0.82295900  0.76104900  0.95710900  1.0
  Fe  Fe87  1  0.83379900  0.90493000  0.57396400  1.0
  Fe  Fe88  1  0.85259800  0.73812000  0.17777300  1.0
  Fe  Fe89  1  0.87458500  0.12556900  0.67687900  1.0
  Fe  Fe90  1  0.90285900  0.39253400  0.97154800  1.0
  Fe  Fe91  1  0.90545900  0.76706400  0.75133900  1.0
  Fe  Fe92  1  0.90751200  0.20019800  0.09776000  1.0
  Fe  Fe93  1  0.91126200  0.92172300  0.33205300  1.0
  Fe  Fe94  1  0.91387300  0.96648800  0.09564200  1.0
  Fe  Fe95  1  0.91646100  0.21464400  0.31240200  1.0
  Fe  Fe96  1  0.92932500  0.29331800  0.55047700  1.0
  Fe  Fe97  1  0.93478000  0.14877800  0.88563300  1.0
  Fe  Fe98  1  0.96594300  0.46906100  0.42583900  1.0
  Fe  Fe99  1  0.97047400  0.54487800  0.64967800  1.0
