# generated using pymatgen
data_Fe
_symmetry_space_group_name_H-M   Fmmm
_cell_length_a   2.45268724
_cell_length_b   2.45268720
_cell_length_c   2.47122481
_cell_angle_alpha   111.74658561
_cell_angle_beta   111.73950415
_cell_angle_gamma   104.68529188
_symmetry_Int_Tables_number   69
_chemical_formula_structural   Fe
_chemical_formula_sum   Fe1
_cell_volume   11.43526077
_cell_formula_units_Z   1
loop_
 _symmetry_equiv_pos_site_id
 _symmetry_equiv_pos_as_xyz
  1  'x, y, z'
  2  '-x, -y, -z'
  3  '-x+z, -y+z, z'
  4  'x-z, y-z, -z'
  5  'y-z, x-z, -z'
  6  '-y+z, -x+z, z'
  7  '-y, -x, -z'
  8  'y, x, z'
loop_
 _atom_site_type_symbol
 _atom_site_label
 _atom_site_symmetry_multiplicity
 _atom_site_fract_x
 _atom_site_fract_y
 _atom_site_fract_z
 _atom_site_occupancy
  Fe  Fe0  1  0.00000025  0.99999975  0.00000000  1.0
