# generated using pymatgen
data_Tl1.76470588Fe3Se3.52941176
_symmetry_space_group_name_H-M   C222
_cell_length_a   5.51334410
_cell_length_b   5.52673105
_cell_length_c   7.45716022
_cell_angle_alpha   90.00000000
_cell_angle_beta   111.69512559
_cell_angle_gamma   90.00000000
_symmetry_Int_Tables_number   21
_chemical_formula_structural   Tl1.76470588Fe3Se3.52941176
_chemical_formula_sum   'Tl1.76470588 Fe3 Se3.52941176'
_cell_volume   211.12968018
_cell_formula_units_Z   1
loop_
 _symmetry_equiv_pos_site_id
 _symmetry_equiv_pos_as_xyz
  1  'x, y, z'
  2  '-x, y, -z'
  3  'x-z+1/2, -y+1/2, -z'
  4  '-x+z+1/2, -y+1/2, z'
loop_
 _atom_site_type_symbol
 _atom_site_label
 _atom_site_symmetry_multiplicity
 _atom_site_fract_x
 _atom_site_fract_y
 _atom_site_fract_z
 _atom_site_occupancy
  Tl  Tl0  2  0.00000000  0.00653700  0.00000000  0.8823529412
  Fe  Fe1  1  0.00000000  0.25000000  0.50000000  1.0
  Fe  Fe2  1  0.00000000  0.75000000  0.50000000  1.0
  Fe  Fe3  1  0.50000000  0.25000000  0.50000000  1.0
  Se  Se4  4  0.15083600  0.50036400  0.30354200  0.882352941175
