# generated using pymatgen
data_LiFeP
_symmetry_space_group_name_H-M   I4mm
_cell_length_a   2.84777400
_cell_length_b   2.84777400
_cell_length_c   4.61203519
_cell_angle_alpha   107.98288576
_cell_angle_beta   107.98288575
_cell_angle_gamma   90.00000001
_symmetry_Int_Tables_number   107
_chemical_formula_structural   LiFeP
_chemical_formula_sum   'Li1 Fe1 P1'
_cell_volume   33.64934900
_cell_formula_units_Z   1
loop_
 _symmetry_equiv_pos_site_id
 _symmetry_equiv_pos_as_xyz
  1  'x, y, z'
  2  '-y+z, x, z'
  3  '-x+z, -y+z, z'
  4  'y, -x+z, z'
  5  '-x+z, y, z'
  6  'y, x, z'
  7  'x, -y+z, z'
  8  '-y+z, -x+z, z'
loop_
 _atom_site_type_symbol
 _atom_site_label
 _atom_site_symmetry_multiplicity
 _atom_site_fract_x
 _atom_site_fract_y
 _atom_site_fract_z
 _atom_site_occupancy
  Li  Li0  1  0.53094300  0.53094300  0.06188600  1.0
  Fe  Fe1  1  0.22622600  0.22622600  0.45245200  1.0
  P  P2  1  0.84843100  0.84843100  0.69686200  1.0
