# generated using pymatgen
data_Fe4Se3.64S0.36
_symmetry_space_group_name_H-M   Pnma
_cell_length_a   4.40127400
_cell_length_b   4.71253900
_cell_length_c   6.55706900
_cell_angle_alpha   90.00000000
_cell_angle_beta   90.00000000
_cell_angle_gamma   90.00000000
_symmetry_Int_Tables_number   62
_chemical_formula_structural   Fe4Se3.64S0.36
_chemical_formula_sum   'Fe4 Se3.64 S0.36'
_cell_volume   136.00131807
_cell_formula_units_Z   1
loop_
 _symmetry_equiv_pos_site_id
 _symmetry_equiv_pos_as_xyz
  1  'x, y, z'
  2  '-x, -y, -z'
  3  '-x, y+1/2, -z+1/2'
  4  'x, -y+1/2, z+1/2'
  5  '-x+1/2, -y+1/2, z+1/2'
  6  'x+1/2, y+1/2, -z+1/2'
  7  'x+1/2, -y, -z'
  8  '-x+1/2, y, z'
loop_
 _atom_site_type_symbol
 _atom_site_label
 _atom_site_symmetry_multiplicity
 _atom_site_fract_x
 _atom_site_fract_y
 _atom_site_fract_z
 _atom_site_occupancy
  Fe  Fe0  4  0.25000000  0.02584100  0.09626700  1.0
  Se  Se1  4  0.25000000  0.52148900  0.23118700  0.91
  S  S2  4  0.25000000  0.52148900  0.23118700  0.09
