# generated using pymatgen
data_FeSn2
_symmetry_space_group_name_H-M   I4/mcm
_cell_length_a   5.33048600
_cell_length_b   5.38041415
_cell_length_c   5.38041415
_cell_angle_alpha   75.79560653
_cell_angle_beta   60.30649519
_cell_angle_gamma   60.30649519
_symmetry_Int_Tables_number   140
_chemical_formula_structural   FeSn2
_chemical_formula_sum   'Fe2 Sn4'
_cell_volume   116.44625857
_cell_formula_units_Z   2
loop_
 _symmetry_equiv_pos_site_id
 _symmetry_equiv_pos_as_xyz
  1  'x, y, z'
  2  '-x, -y, -z'
  3  'x+z, -z, y'
  4  '-x-z, z, -y'
  5  'x+y+z, -y, -z'
  6  '-x-y-z, y, z'
  7  'x+y, z, -y'
  8  '-x-y, -z, y'
  9  '-x-y-z+1/2, z, y'
  10  'x+y+z+1/2, -z, -y'
  11  '-x-y+1/2, y, -z'
  12  'x+y+1/2, -y, z'
  13  '-x+1/2, -z, -y'
  14  'x+1/2, z, y'
  15  '-x-z+1/2, -y, z'
  16  'x+z+1/2, y, -z'
loop_
 _atom_site_type_symbol
 _atom_site_label
 _atom_site_symmetry_multiplicity
 _atom_site_fract_x
 _atom_site_fract_y
 _atom_site_fract_z
 _atom_site_occupancy
  Fe  Fe0  2  0.25000000  0.00000000  0.00000000  1.0
  Sn  Sn1  4  0.16141400  0.17717200  0.50000000  1.0
