# generated using pymatgen
data_Fe4Te3Se
_symmetry_space_group_name_H-M   Pmm2
_cell_length_a   3.65730400
_cell_length_b   6.41544200
_cell_length_c   7.28826100
_cell_angle_alpha   90.00000000
_cell_angle_beta   90.00000000
_cell_angle_gamma   90.00000000
_symmetry_Int_Tables_number   25
_chemical_formula_structural   Fe4Te3Se
_chemical_formula_sum   'Fe4 Te3 Se1'
_cell_volume   171.00608357
_cell_formula_units_Z   1
loop_
 _symmetry_equiv_pos_site_id
 _symmetry_equiv_pos_as_xyz
  1  'x, y, z'
  2  '-x, y, -z'
  3  '-x, y, z'
  4  'x, y, -z'
loop_
 _atom_site_type_symbol
 _atom_site_label
 _atom_site_symmetry_multiplicity
 _atom_site_fract_x
 _atom_site_fract_y
 _atom_site_fract_z
 _atom_site_occupancy
  Fe  Fe0  2  0.00000000  0.00429800  0.24462600  1.0
  Fe  Fe1  1  0.50000000  0.00105500  0.50000000  1.0
  Fe  Fe2  1  0.50000000  0.00840800  0.00000000  1.0
  Te  Te3  2  0.50000000  0.71898100  0.24837800  1.0
  Te  Te4  1  0.00000000  0.28578500  0.50000000  1.0
  Se  Se5  1  0.00000000  0.25819300  0.00000000  1.0
