# generated using pymatgen
data_Fe4Se3.52
_symmetry_space_group_name_H-M   Pnma
_cell_length_a   3.82854800
_cell_length_b   5.28430500
_cell_length_c   6.20670900
_cell_angle_alpha   90.00000000
_cell_angle_beta   90.00000000
_cell_angle_gamma   90.00000000
_symmetry_Int_Tables_number   62
_chemical_formula_structural   Fe4Se3.52
_chemical_formula_sum   'Fe4 Se3.52'
_cell_volume   125.56926633
_cell_formula_units_Z   1
loop_
 _symmetry_equiv_pos_site_id
 _symmetry_equiv_pos_as_xyz
  1  'x, y, z'
  2  '-x, -y, -z'
  3  '-x, -y+1/2, z+1/2'
  4  'x, y+1/2, -z+1/2'
  5  '-x+1/2, y+1/2, -z+1/2'
  6  'x+1/2, -y+1/2, z+1/2'
  7  'x+1/2, -y, -z'
  8  '-x+1/2, y, z'
loop_
 _atom_site_type_symbol
 _atom_site_label
 _atom_site_symmetry_multiplicity
 _atom_site_fract_x
 _atom_site_fract_y
 _atom_site_fract_z
 _atom_site_occupancy
  Fe  Fe0  4  0.25000000  0.01518700  0.78845300  1.0
  Se  Se1  4  0.25000000  0.21990100  0.41292300  0.88
