# generated using pymatgen
data_Fe4Te3Se
_symmetry_space_group_name_H-M   Amm2
_cell_length_a   3.64211000
_cell_length_b   7.30514400
_cell_length_c   7.38833815
_cell_angle_alpha   119.62820948
_cell_angle_beta   90.00000000
_cell_angle_gamma   90.00000000
_symmetry_Int_Tables_number   38
_chemical_formula_structural   Fe4Te3Se
_chemical_formula_sum   'Fe4 Te3 Se1'
_cell_volume   170.87326531
_cell_formula_units_Z   1
loop_
 _symmetry_equiv_pos_site_id
 _symmetry_equiv_pos_as_xyz
  1  'x, y, z'
  2  '-x, -y+z+1/2, z'
  3  '-x, y, z'
  4  'x, -y+z+1/2, z'
loop_
 _atom_site_type_symbol
 _atom_site_label
 _atom_site_symmetry_multiplicity
 _atom_site_fract_x
 _atom_site_fract_y
 _atom_site_fract_z
 _atom_site_occupancy
  Fe  Fe0  2  0.00000000  0.00613900  0.00496600  1.0
  Fe  Fe1  1  0.50000000  0.25338600  0.00677200  1.0
  Fe  Fe2  1  0.50000000  0.75129400  0.00258800  1.0
  Te  Te3  2  0.50000000  0.35902200  0.72002600  1.0
  Te  Te4  1  0.00000000  0.89279800  0.28559600  1.0
  Se  Se5  1  0.00000000  0.37752900  0.25505800  1.0
