# generated using pymatgen
data_FeS
_symmetry_space_group_name_H-M   P2_1/c
_cell_length_a   5.64679900
_cell_length_b   6.52039600
_cell_length_c   7.94089220
_cell_angle_alpha   91.09275582
_cell_angle_beta   90.00000000
_cell_angle_gamma   90.00000000
_symmetry_Int_Tables_number   14
_chemical_formula_structural   FeS
_chemical_formula_sum   'Fe12 S12'
_cell_volume   292.32543870
_cell_formula_units_Z   12
loop_
 _symmetry_equiv_pos_site_id
 _symmetry_equiv_pos_as_xyz
  1  'x, y, z'
  2  '-x, -y, -z'
  3  'x+1/2, -y, -z+1/2'
  4  '-x+1/2, y, z+1/2'
loop_
 _atom_site_type_symbol
 _atom_site_label
 _atom_site_symmetry_multiplicity
 _atom_site_fract_x
 _atom_site_fract_y
 _atom_site_fract_z
 _atom_site_occupancy
  Fe  Fe0  4  0.19879800  0.09142100  0.06202700  1.0
  Fe  Fe1  4  0.20808100  0.82639300  0.78926400  1.0
  Fe  Fe2  4  0.22572400  0.45910700  0.42358200  1.0
  S  S3  4  0.06706800  0.13129400  0.80979800  1.0
  S  S4  4  0.07334100  0.40726900  0.16116900  1.0
  S  S5  4  0.08554700  0.75847200  0.52434700  1.0
