# generated using pymatgen
data_FeS
_symmetry_space_group_name_H-M   P6_3mc
_cell_length_a   5.36706500
_cell_length_b   6.73225800
_cell_length_c   6.73225847
_cell_angle_alpha   60.00000233
_cell_angle_beta   90.00000000
_cell_angle_gamma   90.00000000
_symmetry_Int_Tables_number   186
_chemical_formula_structural   FeS
_chemical_formula_sum   'Fe8 S8'
_cell_volume   210.66337098
_cell_formula_units_Z   8
loop_
 _symmetry_equiv_pos_site_id
 _symmetry_equiv_pos_as_xyz
  1  'x, y, z'
  2  'x+1/2, y+z, -y'
  3  'x, z, -y-z'
  4  'x+1/2, -y, -z'
  5  'x, -y-z, y'
  6  'x+1/2, -z, y+z'
  7  'x+1/2, -z, -y'
  8  'x, y, -y-z'
  9  'x+1/2, y+z, -z'
  10  'x, z, y'
  11  'x+1/2, -y, y+z'
  12  'x, -y-z, z'
loop_
 _atom_site_type_symbol
 _atom_site_label
 _atom_site_symmetry_multiplicity
 _atom_site_fract_x
 _atom_site_fract_y
 _atom_site_fract_z
 _atom_site_occupancy
  Fe  Fe0  6  0.49924800  0.52944700  0.52944800  1.0
  Fe  Fe1  2  0.03797100  0.00000000  0.00000000  1.0
  S  S2  6  0.26097800  0.16553600  0.16553600  1.0
  S  S3  2  0.20226900  0.66666667  0.66666667  1.0
