# generated using pymatgen
data_Fe2Se1.88
_symmetry_space_group_name_H-M   Cmme
_cell_length_a   3.49285782
_cell_length_b   3.49285782
_cell_length_c   7.14047900
_cell_angle_alpha   90.00000000
_cell_angle_beta   90.00000000
_cell_angle_gamma   101.66350928
_symmetry_Int_Tables_number   67
_chemical_formula_structural   Fe2Se1.88
_chemical_formula_sum   'Fe2 Se1.88'
_cell_volume   85.31548645
_cell_formula_units_Z   1
loop_
 _symmetry_equiv_pos_site_id
 _symmetry_equiv_pos_as_xyz
  1  'x, y, z'
  2  '-x, -y, -z'
  3  '-x+1/2, -y+1/2, z'
  4  'x+1/2, y+1/2, -z'
  5  'y, x, -z'
  6  '-y, -x, z'
  7  '-y+1/2, -x+1/2, -z'
  8  'y+1/2, x+1/2, z'
loop_
 _atom_site_type_symbol
 _atom_site_label
 _atom_site_symmetry_multiplicity
 _atom_site_fract_x
 _atom_site_fract_y
 _atom_site_fract_z
 _atom_site_occupancy
  Fe  Fe0  2  0.00000000  0.00000000  0.00000000  1.0
  Se  Se1  2  0.25000000  0.75000000  0.25645200  0.94
