# generated using pymatgen
data_Fe2P
_symmetry_space_group_name_H-M   Imm2
_cell_length_a   6.05128500
_cell_length_b   6.51667200
_cell_length_c   6.73153162
_cell_angle_alpha   118.94964781
_cell_angle_beta   116.70988949
_cell_angle_gamma   90.00000000
_symmetry_Int_Tables_number   44
_chemical_formula_structural   Fe2P
_chemical_formula_sum   'Fe12 P6'
_cell_volume   199.29804396
_cell_formula_units_Z   6
loop_
 _symmetry_equiv_pos_site_id
 _symmetry_equiv_pos_as_xyz
  1  'x, y, z'
  2  'x-z, -y, -z'
  3  'x, -y+z, z'
  4  'x-z, y-z, -z'
loop_
 _atom_site_type_symbol
 _atom_site_label
 _atom_site_symmetry_multiplicity
 _atom_site_fract_x
 _atom_site_fract_y
 _atom_site_fract_z
 _atom_site_occupancy
  Fe  Fe0  4  0.72949800  0.15158400  0.74057300  1.0
  Fe  Fe1  2  0.01882100  0.29933000  0.59865900  1.0
  Fe  Fe2  2  0.25191900  0.21718300  0.00000000  1.0
  Fe  Fe3  2  0.35422000  0.20836900  0.41673700  1.0
  Fe  Fe4  1  0.57208800  0.50000000  0.00000000  1.0
  Fe  Fe5  1  0.61485200  0.00000000  0.00000000  1.0
  P  P6  4  0.32470900  0.06531600  0.66903600  1.0
  P  P7  1  0.04704700  0.50000000  0.00000000  1.0
  P  P8  1  0.96787500  0.00000000  0.00000000  1.0
