# generated using pymatgen
data_Fe2Te3
_symmetry_space_group_name_H-M   R-3c
_cell_length_a   6.23519526
_cell_length_b   6.23519526
_cell_length_c   6.23519558
_cell_angle_alpha   62.19033756
_cell_angle_beta   62.19033756
_cell_angle_gamma   62.19033829
_symmetry_Int_Tables_number   167
_chemical_formula_structural   Fe2Te3
_chemical_formula_sum   'Fe4 Te6'
_cell_volume   179.79575889
_cell_formula_units_Z   2
loop_
 _symmetry_equiv_pos_site_id
 _symmetry_equiv_pos_as_xyz
  1  'x, y, z'
  2  '-x, -y, -z'
  3  'z, x, y'
  4  '-z, -x, -y'
  5  'y, z, x'
  6  '-y, -z, -x'
  7  '-z+1/2, -y+1/2, -x+1/2'
  8  'z+1/2, y+1/2, x+1/2'
  9  '-y+1/2, -x+1/2, -z+1/2'
  10  'y+1/2, x+1/2, z+1/2'
  11  '-x+1/2, -z+1/2, -y+1/2'
  12  'x+1/2, z+1/2, y+1/2'
loop_
 _atom_site_type_symbol
 _atom_site_label
 _atom_site_symmetry_multiplicity
 _atom_site_fract_x
 _atom_site_fract_y
 _atom_site_fract_z
 _atom_site_occupancy
  Fe  Fe0  4  0.15816100  0.15816100  0.15816100  1.0
  Te  Te1  6  0.08231800  0.75000000  0.41768200  1.0
