# generated using pymatgen
data_Th7Fe3
_symmetry_space_group_name_H-M   P6_3mc
_cell_length_a   6.23407600
_cell_length_b   9.68330600
_cell_length_c   9.68330601
_cell_angle_alpha   119.99999997
_cell_angle_beta   90.00000000
_cell_angle_gamma   90.00000000
_symmetry_Int_Tables_number   186
_chemical_formula_structural   Th7Fe3
_chemical_formula_sum   'Th14 Fe6'
_cell_volume   506.23251594
_cell_formula_units_Z   2
loop_
 _symmetry_equiv_pos_site_id
 _symmetry_equiv_pos_as_xyz
  1  'x, y, z'
  2  'x+1/2, y-z, y'
  3  'x, -z, y-z'
  4  'x+1/2, -y, -z'
  5  'x, -y+z, -y'
  6  'x+1/2, z, -y+z'
  7  'x+1/2, -y, -y+z'
  8  'x, -y+z, z'
  9  'x+1/2, z, y'
  10  'x, y, y-z'
  11  'x+1/2, y-z, -z'
  12  'x, -z, -y'
loop_
 _atom_site_type_symbol
 _atom_site_label
 _atom_site_symmetry_multiplicity
 _atom_site_fract_x
 _atom_site_fract_y
 _atom_site_fract_z
 _atom_site_occupancy
  Th  Th0  6  0.25008600  0.12487600  0.24975200  1.0
  Th  Th1  6  0.44329200  0.54212700  0.08425400  1.0
  Th  Th2  2  0.46914800  0.33333333  0.66666667  1.0
  Fe  Fe3  6  0.20690600  0.36951500  0.18475700  1.0
