# generated using pymatgen
data_Tb(FeP3)4
_symmetry_space_group_name_H-M   Im-3
_cell_length_a   6.73840510
_cell_length_b   6.73840510
_cell_length_c   6.73840510
_cell_angle_alpha   109.47122063
_cell_angle_beta   109.47122064
_cell_angle_gamma   109.47122064
_symmetry_Int_Tables_number   204
_chemical_formula_structural   Tb(FeP3)4
_chemical_formula_sum   'Tb1 Fe4 P12'
_cell_volume   235.53174971
_cell_formula_units_Z   1
loop_
 _symmetry_equiv_pos_site_id
 _symmetry_equiv_pos_as_xyz
  1  'x, y, z'
  2  '-x, -y, -z'
  3  'y-z, x-z, -z'
  4  '-y+z, -x+z, z'
  5  '-y+z, -y, x-y'
  6  'y-z, y, -x+y'
  7  '-x, -x+z, -x+y'
  8  'x, x-z, x-y'
  9  '-y, x-y, -y+z'
  10  'y, -x+y, y-z'
  11  '-x+z, -x+y, -x'
  12  'x-z, x-y, x'
  13  'y, z, x'
  14  '-y, -z, -x'
  15  'x-z, -z, y-z'
  16  '-x+z, z, -y+z'
  17  '-x+y, -x, -x+z'
  18  'x-y, x, x-z'
  19  'x-y, -y+z, -y'
  20  '-x+y, y-z, y'
  21  '-z, y-z, x-z'
  22  'z, -y+z, -x+z'
  23  'z, x, y'
  24  '-z, -x, -y'
loop_
 _atom_site_type_symbol
 _atom_site_label
 _atom_site_symmetry_multiplicity
 _atom_site_fract_x
 _atom_site_fract_y
 _atom_site_fract_z
 _atom_site_occupancy
  Tb  Tb0  1  0.00000000  0.00000000  0.00000000  1.0
  Fe  Fe1  4  0.00000000  0.00000000  0.50000000  1.0
  P  P2  12  0.15084000  0.50300700  0.35216800  1.0
