# generated using pymatgen
data_V3Ga0.793Sb0.207
_symmetry_space_group_name_H-M   Cmmm
_cell_length_a   2.62087484
_cell_length_b   2.62087484
_cell_length_c   8.41800900
_cell_angle_alpha   90.00000000
_cell_angle_beta   90.00000000
_cell_angle_gamma   106.02254577
_symmetry_Int_Tables_number   65
_chemical_formula_structural   V3Ga0.793Sb0.207
_chemical_formula_sum   'V3 Ga0.793 Sb0.207'
_cell_volume   55.57692916
_cell_formula_units_Z   1
loop_
 _symmetry_equiv_pos_site_id
 _symmetry_equiv_pos_as_xyz
  1  'x, y, z'
  2  '-x, -y, -z'
  3  '-x, -y, z'
  4  'x, y, -z'
  5  'y, x, -z'
  6  '-y, -x, z'
  7  '-y, -x, -z'
  8  'y, x, z'
loop_
 _atom_site_type_symbol
 _atom_site_label
 _atom_site_symmetry_multiplicity
 _atom_site_fract_x
 _atom_site_fract_y
 _atom_site_fract_z
 _atom_site_occupancy
  V  V0  2  0.50000000  0.50000000  0.25592900  1.0
  V  V1  1  0.00000000  0.00000000  0.50000000  1.0
  Ga  Ga2  1  0.00000000  0.00000000  0.00000000  0.793
  Sb  Sb3  1  0.00000000  0.00000000  0.00000000  0.207
