# generated using pymatgen
data_Ga
_symmetry_space_group_name_H-M   R-3m
_cell_length_a   7.85517898
_cell_length_b   7.85517898
_cell_length_c   7.85517933
_cell_angle_alpha   71.17506445
_cell_angle_beta   71.17506445
_cell_angle_gamma   71.17506155
_symmetry_Int_Tables_number   166
_chemical_formula_structural   Ga
_chemical_formula_sum   Ga22
_cell_volume   421.10802751
_cell_formula_units_Z   22
loop_
 _symmetry_equiv_pos_site_id
 _symmetry_equiv_pos_as_xyz
  1  'x, y, z'
  2  '-x, -y, -z'
  3  'z, x, y'
  4  '-z, -x, -y'
  5  'y, z, x'
  6  '-y, -z, -x'
  7  '-z, -y, -x'
  8  'z, y, x'
  9  '-y, -x, -z'
  10  'y, x, z'
  11  '-x, -z, -y'
  12  'x, z, y'
loop_
 _atom_site_type_symbol
 _atom_site_label
 _atom_site_symmetry_multiplicity
 _atom_site_fract_x
 _atom_site_fract_y
 _atom_site_fract_z
 _atom_site_occupancy
  Ga  Ga0  6  0.02207900  0.71945100  0.71945100  1.0
  Ga  Ga1  6  0.09654600  0.09654600  0.61519700  1.0
  Ga  Ga2  6  0.32009500  0.32009500  0.62578200  1.0
  Ga  Ga3  3  0.00000000  0.50000000  0.50000000  1.0
  Ga  Ga4  1  0.00000000  0.00000000  0.00000000  1.0
