# generated using pymatgen
data_Ga
_symmetry_space_group_name_H-M   Cmcm
_cell_length_a   2.75358800
_cell_length_b   3.10261800
_cell_length_c   4.65698197
_cell_angle_alpha   90.00000000
_cell_angle_beta   107.19596814
_cell_angle_gamma   90.00000000
_symmetry_Int_Tables_number   63
_chemical_formula_structural   Ga
_chemical_formula_sum   Ga2
_cell_volume   38.00766805
_cell_formula_units_Z   2
loop_
 _symmetry_equiv_pos_site_id
 _symmetry_equiv_pos_as_xyz
  1  'x, y, z'
  2  '-x, -y, -z'
  3  '-x, y+1/2, -z'
  4  'x, -y+1/2, z'
  5  'x-z, -y, -z'
  6  '-x+z, y, z'
  7  '-x+z, -y+1/2, z'
  8  'x-z, y+1/2, -z'
loop_
 _atom_site_type_symbol
 _atom_site_label
 _atom_site_symmetry_multiplicity
 _atom_site_fract_x
 _atom_site_fract_y
 _atom_site_fract_z
 _atom_site_occupancy
  Ga  Ga0  2  0.13171500  0.75000000  0.26343000  1.0
