# generated using pymatgen
data_Ga
_symmetry_space_group_name_H-M   Cmcm
_cell_length_a   4.56089710
_cell_length_b   4.56089710
_cell_length_c   4.60819700
_cell_angle_alpha   90.00000000
_cell_angle_beta   90.00000000
_cell_angle_gamma   118.32106125
_symmetry_Int_Tables_number   63
_chemical_formula_structural   Ga
_chemical_formula_sum   Ga4
_cell_volume   84.38471329
_cell_formula_units_Z   4
loop_
 _symmetry_equiv_pos_site_id
 _symmetry_equiv_pos_as_xyz
  1  'x, y, z'
  2  '-x, -y, -z'
  3  '-x, -y, z+1/2'
  4  'x, y, -z+1/2'
  5  '-y, -x, -z'
  6  'y, x, z'
  7  'y, x, -z+1/2'
  8  '-y, -x, z+1/2'
loop_
 _atom_site_type_symbol
 _atom_site_label
 _atom_site_symmetry_multiplicity
 _atom_site_fract_x
 _atom_site_fract_y
 _atom_site_fract_z
 _atom_site_occupancy
  Ga  Ga0  4  0.01156200  0.33533300  0.75000000  1.0
