# generated using pymatgen
data_Ga
_symmetry_space_group_name_H-M   Cmce
_cell_length_a   4.48901475
_cell_length_b   4.48901475
_cell_length_c   4.59297100
_cell_angle_alpha   90.00000000
_cell_angle_beta   90.00000000
_cell_angle_gamma   119.38657501
_symmetry_Int_Tables_number   64
_chemical_formula_structural   Ga
_chemical_formula_sum   Ga4
_cell_volume   80.64507360
_cell_formula_units_Z   4
loop_
 _symmetry_equiv_pos_site_id
 _symmetry_equiv_pos_as_xyz
  1  'x, y, z'
  2  '-x, -y, -z'
  3  '-x+1/2, -y+1/2, z+1/2'
  4  'x+1/2, y+1/2, -z+1/2'
  5  'y, x, -z'
  6  '-y, -x, z'
  7  '-y+1/2, -x+1/2, -z+1/2'
  8  'y+1/2, x+1/2, z+1/2'
loop_
 _atom_site_type_symbol
 _atom_site_label
 _atom_site_symmetry_multiplicity
 _atom_site_fract_x
 _atom_site_fract_y
 _atom_site_fract_z
 _atom_site_occupancy
  Ga  Ga0  4  0.15581800  0.84418200  0.08103700  1.0
