# generated using pymatgen
data_Hf2Ga
_symmetry_space_group_name_H-M   I4/mcm
_cell_length_a   5.29151400
_cell_length_b   5.43377816
_cell_length_c   5.43377816
_cell_angle_alpha   76.28569853
_cell_angle_beta   60.86236100
_cell_angle_gamma   60.86236100
_symmetry_Int_Tables_number   140
_chemical_formula_structural   Hf2Ga
_chemical_formula_sum   'Hf4 Ga2'
_cell_volume   119.19619454
_cell_formula_units_Z   2
loop_
 _symmetry_equiv_pos_site_id
 _symmetry_equiv_pos_as_xyz
  1  'x, y, z'
  2  '-x, -y, -z'
  3  'x+z, -z, y'
  4  '-x-z, z, -y'
  5  'x+y+z, -y, -z'
  6  '-x-y-z, y, z'
  7  'x+y, z, -y'
  8  '-x-y, -z, y'
  9  '-x-y-z+1/2, z, y'
  10  'x+y+z+1/2, -z, -y'
  11  '-x-y+1/2, y, -z'
  12  'x+y+1/2, -y, z'
  13  '-x+1/2, -z, -y'
  14  'x+1/2, z, y'
  15  '-x-z+1/2, -y, z'
  16  'x+z+1/2, y, -z'
loop_
 _atom_site_type_symbol
 _atom_site_label
 _atom_site_symmetry_multiplicity
 _atom_site_fract_x
 _atom_site_fract_y
 _atom_site_fract_z
 _atom_site_occupancy
  Hf  Hf0  4  0.15368800  0.50000000  0.19262400  1.0
  Ga  Ga1  2  0.25000000  0.00000000  0.00000000  1.0
