# generated using pymatgen
data_Ti2GaMo
_symmetry_space_group_name_H-M   Immm
_cell_length_a   9.64788400
_cell_length_b   9.93513433
_cell_length_c   9.93513433
_cell_angle_alpha   61.25240328
_cell_angle_beta   60.95189894
_cell_angle_gamma   60.95189894
_symmetry_Int_Tables_number   71
_chemical_formula_structural   Ti2GaMo
_chemical_formula_sum   'Ti2 Ga1 Mo1'
_cell_volume   689.32653846
_cell_formula_units_Z   1
loop_
 _symmetry_equiv_pos_site_id
 _symmetry_equiv_pos_as_xyz
  1  'x, y, z'
  2  '-x, -y, -z'
  3  '-x-y-z, z, y'
  4  'x+y+z, -z, -y'
  5  'x+y+z, -y, -z'
  6  '-x-y-z, y, z'
  7  '-x, -z, -y'
  8  'x, z, y'
loop_
 _atom_site_type_symbol
 _atom_site_label
 _atom_site_symmetry_multiplicity
 _atom_site_fract_x
 _atom_site_fract_y
 _atom_site_fract_z
 _atom_site_occupancy
  Ti  Ti0  2  0.27812300  0.00000000  0.00000000  1.0
  Ga  Ga1  1  0.00000000  0.00000000  0.00000000  1.0
  Mo  Mo2  1  0.50000000  0.00000000  0.00000000  1.0
