# generated using pymatgen
data_GaN
_symmetry_space_group_name_H-M   P1
_cell_length_a   11.05365775
_cell_length_b   11.77069375
_cell_length_c   12.05557354
_cell_angle_alpha   92.94501163
_cell_angle_beta   92.33488026
_cell_angle_gamma   97.84997323
_symmetry_Int_Tables_number   1
_chemical_formula_structural   GaN
_chemical_formula_sum   'Ga50 N50'
_cell_volume   1549.98137478
_cell_formula_units_Z   50
loop_
 _symmetry_equiv_pos_site_id
 _symmetry_equiv_pos_as_xyz
  1  'x, y, z'
loop_
 _atom_site_type_symbol
 _atom_site_label
 _atom_site_symmetry_multiplicity
 _atom_site_fract_x
 _atom_site_fract_y
 _atom_site_fract_z
 _atom_site_occupancy
  Ga  Ga0  1  0.01193963  0.99876970  0.85004204  1.0
  Ga  Ga1  1  0.01548417  0.45419231  0.74467437  1.0
  Ga  Ga2  1  0.03341237  0.70375050  0.93343181  1.0
  Ga  Ga3  1  0.04286149  0.53689813  0.20730607  1.0
  Ga  Ga4  1  0.05962442  0.49673246  0.46099289  1.0
  Ga  Ga5  1  0.10150998  0.29659383  0.31420481  1.0
  Ga  Ga6  1  0.11869387  0.76699098  0.74691227  1.0
  Ga  Ga7  1  0.12243463  0.24701890  0.92208980  1.0
  Ga  Ga8  1  0.14473956  0.07376864  0.39931682  1.0
  Ga  Ga9  1  0.14999486  0.92728362  0.20995549  1.0
  Ga  Ga10  1  0.16658442  0.69868565  0.11518624  1.0
  Ga  Ga11  1  0.16995432  0.04556117  0.67731487  1.0
  Ga  Ga12  1  0.18524488  0.70722601  0.38599675  1.0
  Ga  Ga13  1  0.19769697  0.46595241  0.89502050  1.0
  Ga  Ga14  1  0.20680911  0.86912847  0.52458345  1.0
  Ga  Ga15  1  0.25565064  0.40168527  0.09370071  1.0
  Ga  Ga16  1  0.27189667  0.13410565  0.18193392  1.0
  Ga  Ga17  1  0.27375475  0.68118600  0.89444148  1.0
  Ga  Ga18  1  0.27721630  0.57044878  0.60792731  1.0
  Ga  Ga19  1  0.31472561  0.47516330  0.32488446  1.0
  Ga  Ga20  1  0.32432127  0.13117940  0.92913197  1.0
  Ga  Ga21  1  0.39636116  0.66159058  0.13249492  1.0
  Ga  Ga22  1  0.40406099  0.28512885  0.36561051  1.0
  Ga  Ga23  1  0.40938654  0.93468706  0.70366676  1.0
  Ga  Ga24  1  0.41544901  0.06670317  0.52915614  1.0
  Ga  Ga25  1  0.41900330  0.83955599  0.27184918  1.0
  Ga  Ga26  1  0.46915839  0.83515057  0.87335561  1.0
  Ga  Ga27  1  0.53022467  0.23674299  0.08770673  1.0
  Ga  Ga28  1  0.55254571  0.44784578  0.23231464  1.0
  Ga  Ga29  1  0.55391615  0.10871527  0.33025387  1.0
  Ga  Ga30  1  0.55424434  0.69147409  0.72518456  1.0
  Ga  Ga31  1  0.56117072  0.89824834  0.52302800  1.0
  Ga  Ga32  1  0.60943137  0.24991102  0.83040259  1.0
  Ga  Ga33  1  0.62789301  0.01407200  0.92592912  1.0
  Ga  Ga34  1  0.66923764  0.25922527  0.55282362  1.0
  Ga  Ga35  1  0.70707947  0.38081046  0.04545909  1.0
  Ga  Ga36  1  0.74308953  0.03446251  0.69695790  1.0
  Ga  Ga37  1  0.78206664  0.51582968  0.82120939  1.0
  Ga  Ga38  1  0.79181338  0.31291620  0.37535493  1.0
  Ga  Ga39  1  0.80559501  0.80675235  0.80086249  1.0
  Ga  Ga40  1  0.80578795  0.06145461  0.41939622  1.0
  Ga  Ga41  1  0.81350878  0.17465611  0.01562203  1.0
  Ga  Ga42  1  0.81530905  0.46019508  0.22342866  1.0
  Ga  Ga43  1  0.82780314  0.59029165  0.62606962  1.0
  Ga  Ga44  1  0.89620269  0.24575638  0.75975157  1.0
  Ga  Ga45  1  0.90889365  0.91962357  0.54245333  1.0
  Ga  Ga46  1  0.94062490  0.70920731  0.48671136  1.0
  Ga  Ga47  1  0.94598441  0.22672713  0.54242936  1.0
  Ga  Ga48  1  0.94861135  0.42351939  0.00365996  1.0
  Ga  Ga49  1  0.95373741  0.92877986  0.32313699  1.0
  N  N50  1  0.01722978  0.62359043  0.37348869  1.0
  N  N51  1  0.02679444  0.65813239  0.63546105  1.0
  N  N52  1  0.07326084  0.54918431  0.62089528  1.0
  N  N53  1  0.15868361  0.42008136  0.22861022  1.0
  N  N54  1  0.17190007  0.10315611  0.83827120  1.0
  N  N55  1  0.22002888  0.88994661  0.68442501  1.0
  N  N56  1  0.23024162  0.20283365  0.33024485  1.0
  N  N57  1  0.23647261  0.34283626  0.60783306  1.0
  N  N58  1  0.23651919  0.80063815  0.25438848  1.0
  N  N59  1  0.23752466  0.04272516  0.52693166  1.0
  N  N60  1  0.23865277  0.55902569  0.43967538  1.0
  N  N61  1  0.25030289  0.22655753  0.04855090  1.0
  N  N62  1  0.28182639  0.27243339  0.64430166  1.0
  N  N63  1  0.34214966  0.98867682  0.03771793  1.0
  N  N64  1  0.39904118  0.50617653  0.17887831  1.0
  N  N65  1  0.40995550  0.92496747  0.05568997  1.0
  N  N66  1  0.42385872  0.46430673  0.79796089  1.0
  N  N67  1  0.45075490  0.37538240  0.78660612  1.0
  N  N68  1  0.45143589  0.17607310  0.21793718  1.0
  N  N69  1  0.47088199  0.65681289  0.40251510  1.0
  N  N70  1  0.48202131  0.69776096  0.49090632  1.0
  N  N71  1  0.48345176  0.95732105  0.38510558  1.0
  N  N72  1  0.49936351  0.16133695  0.92904299  1.0
  N  N73  1  0.50400192  0.20109240  0.46924093  1.0
  N  N74  1  0.53528473  0.62200924  0.99279186  1.0
  N  N75  1  0.54084851  0.49158729  0.56529933  1.0
  N  N76  1  0.59115544  0.42394775  0.60284784  1.0
  N  N77  1  0.62809649  0.59214873  0.99572705  1.0
  N  N78  1  0.65165119  0.95714757  0.13448247  1.0
  N  N79  1  0.68642014  0.39451893  0.88823930  1.0
  N  N80  1  0.68893272  0.87371567  0.14078975  1.0
  N  N81  1  0.70182354  0.19586749  0.70974449  1.0
  N  N82  1  0.70267846  0.77856291  0.33827917  1.0
  N  N83  1  0.70399489  0.92295136  0.80563453  1.0
  N  N84  1  0.71712040  0.68757250  0.35096912  1.0
  N  N85  1  0.72574592  0.65574572  0.76071429  1.0
  N  N86  1  0.72660699  0.15045541  0.32327710  1.0
  N  N87  1  0.73769334  0.96817437  0.54376869  1.0
  N  N88  1  0.84468131  0.69264939  0.14522180  1.0
  N  N89  1  0.85278859  0.71067844  0.05503795  1.0
  N  N90  1  0.89914806  0.11417947  0.18645456  1.0
  N  N91  1  0.92617220  0.07601728  0.73492686  1.0
  N  N92  1  0.93244973  0.00906079  0.00543994  1.0
  N  N93  1  0.93942380  0.93993991  0.06952998  1.0
  N  N94  1  0.94525800  0.25896527  0.92695584  1.0
  N  N95  1  0.95287665  0.54289977  0.88586467  1.0
  N  N96  1  0.98106529  0.83099691  0.83354350  1.0
  N  N97  1  0.98414499  0.16753856  0.22997642  1.0
  N  N98  1  0.99294309  0.33629966  0.42653901  1.0
  N  N99  1  0.99675220  0.04950680  0.64009456  1.0
