# generated using pymatgen
data_GaN
_symmetry_space_group_name_H-M   P1
_cell_length_a   10.84855438
_cell_length_b   11.53785924
_cell_length_c   11.78700036
_cell_angle_alpha   87.83585996
_cell_angle_beta   89.87277260
_cell_angle_gamma   88.79691170
_symmetry_Int_Tables_number   1
_chemical_formula_structural   GaN
_chemical_formula_sum   'Ga50 N50'
_cell_volume   1473.98932443
_cell_formula_units_Z   50
loop_
 _symmetry_equiv_pos_site_id
 _symmetry_equiv_pos_as_xyz
  1  'x, y, z'
loop_
 _atom_site_type_symbol
 _atom_site_label
 _atom_site_symmetry_multiplicity
 _atom_site_fract_x
 _atom_site_fract_y
 _atom_site_fract_z
 _atom_site_occupancy
  Ga  Ga0  1  0.00911475  0.65829765  0.78274935  1.0
  Ga  Ga1  1  0.01020510  0.89581774  0.69034769  1.0
  Ga  Ga2  1  0.02572148  0.55805588  0.98045956  1.0
  Ga  Ga3  1  0.05125048  0.83700906  0.23590917  1.0
  Ga  Ga4  1  0.05408567  0.31986092  0.15947966  1.0
  Ga  Ga5  1  0.06481070  0.72012811  0.41956600  1.0
  Ga  Ga6  1  0.10097223  0.09064003  0.03203166  1.0
  Ga  Ga7  1  0.11094286  0.13421240  0.79822215  1.0
  Ga  Ga8  1  0.15959269  0.10088078  0.33225220  1.0
  Ga  Ga9  1  0.18535576  0.34183091  0.91394893  1.0
  Ga  Ga10  1  0.18646153  0.61060639  0.58666267  1.0
  Ga  Ga11  1  0.18993618  0.80218876  0.94974405  1.0
  Ga  Ga12  1  0.22383701  0.83812588  0.54274866  1.0
  Ga  Ga13  1  0.22688770  0.41324649  0.36235209  1.0
  Ga  Ga14  1  0.24493524  0.41790828  0.67881917  1.0
  Ga  Ga15  1  0.25966192  0.90278285  0.18190066  1.0
  Ga  Ga16  1  0.35798567  0.06726332  0.98449591  1.0
  Ga  Ga17  1  0.36065754  0.99140520  0.35478632  1.0
  Ga  Ga18  1  0.40478589  0.69629582  0.75967062  1.0
  Ga  Ga19  1  0.43186063  0.52391435  0.34016758  1.0
  Ga  Ga20  1  0.44338262  0.51049827  0.55708287  1.0
  Ga  Ga21  1  0.44481272  0.79624616  0.95470688  1.0
  Ga  Ga22  1  0.46556645  0.19107465  0.26812681  1.0
  Ga  Ga23  1  0.46954607  0.78984470  0.18208238  1.0
  Ga  Ga24  1  0.48443578  0.30684417  0.07181228  1.0
  Ga  Ga25  1  0.49230194  0.52270620  0.98642247  1.0
  Ga  Ga26  1  0.49977447  0.76640474  0.46444762  1.0
  Ga  Ga27  1  0.59993862  0.98579503  0.33116497  1.0
  Ga  Ga28  1  0.60330999  0.01159794  0.06677466  1.0
  Ga  Ga29  1  0.63217980  0.94581214  0.80083733  1.0
  Ga  Ga30  1  0.65383588  0.41358719  0.35820168  1.0
  Ga  Ga31  1  0.66004486  0.60958808  0.22640437  1.0
  Ga  Ga32  1  0.68215358  0.64866836  0.62822123  1.0
  Ga  Ga33  1  0.70651437  0.92235881  0.59328503  1.0
  Ga  Ga34  1  0.74772487  0.68025016  0.97399867  1.0
  Ga  Ga35  1  0.75339375  0.67544435  0.42412239  1.0
  Ga  Ga36  1  0.76420845  0.16338866  0.43454487  1.0
  Ga  Ga37  1  0.76764938  0.81999889  0.24703398  1.0
  Ga  Ga38  1  0.80142964  0.14825702  0.79458581  1.0
  Ga  Ga39  1  0.80535674  0.37081195  0.59694852  1.0
  Ga  Ga40  1  0.81612338  0.49824557  0.83790134  1.0
  Ga  Ga41  1  0.84428934  0.07369250  0.20060742  1.0
  Ga  Ga42  1  0.86213556  0.18881737  0.98802063  1.0
  Ga  Ga43  1  0.87756186  0.93336175  0.96243875  1.0
  Ga  Ga44  1  0.93496555  0.71108798  0.10058010  1.0
  Ga  Ga45  1  0.93849420  0.55129576  0.27680780  1.0
  Ga  Ga46  1  0.94498753  0.97499700  0.43395955  1.0
  Ga  Ga47  1  0.95236005  0.56322293  0.59296650  1.0
  Ga  Ga48  1  0.98203177  0.11239044  0.60603441  1.0
  Ga  Ga49  1  0.98253546  0.31565151  0.42985861  1.0
  N  N50  1  0.00481019  0.39671246  0.58160959  1.0
  N  N51  1  0.02463153  0.14617710  0.43602104  1.0
  N  N52  1  0.03663961  0.40768924  0.29869362  1.0
  N  N53  1  0.04893488  0.86909451  0.52691496  1.0
  N  N54  1  0.08207308  0.40864409  0.02170361  1.0
  N  N55  1  0.11159631  0.30729643  0.74591787  1.0
  N  N56  1  0.13456319  0.78548796  0.76593201  1.0
  N  N57  1  0.19994772  0.22631757  0.21582194  1.0
  N  N58  1  0.22123657  0.17729038  0.92689862  1.0
  N  N59  1  0.22368757  0.96413944  0.03167840  1.0
  N  N60  1  0.22726029  0.59526159  0.18843184  1.0
  N  N61  1  0.23419994  0.74824781  0.69208193  1.0
  N  N62  1  0.26270347  0.14453304  0.56082843  1.0
  N  N63  1  0.27664789  0.59998396  0.10434601  1.0
  N  N64  1  0.28673933  0.27684739  0.27194742  1.0
  N  N65  1  0.29047591  0.99295357  0.75956855  1.0
  N  N66  1  0.29614358  0.45723360  0.83204523  1.0
  N  N67  1  0.30776619  0.23126278  0.56326090  1.0
  N  N68  1  0.36272581  0.87105702  0.46594294  1.0
  N  N69  1  0.36459589  0.94932809  0.70832591  1.0
  N  N70  1  0.37105741  0.53808217  0.85787778  1.0
  N  N71  1  0.47417638  0.13912907  0.09079736  1.0
  N  N72  1  0.48445529  0.17958427  0.80623261  1.0
  N  N73  1  0.49952282  0.67723166  0.31028241  1.0
  N  N74  1  0.50002270  0.66292549  0.61482290  1.0
  N  N75  1  0.51509787  0.95491189  0.93319217  1.0
  N  N76  1  0.52493249  0.09945699  0.57473852  1.0
  N  N77  1  0.53116240  0.39411942  0.70568677  1.0
  N  N78  1  0.55277366  0.21915133  0.86402617  1.0
  N  N79  1  0.57224358  0.44385219  0.77840287  1.0
  N  N80  1  0.57445146  0.18151419  0.55046423  1.0
  N  N81  1  0.59617731  0.63442387  0.05949791  1.0
  N  N82  1  0.61071610  0.89580977  0.19293687  1.0
  N  N83  1  0.64089918  0.87044536  0.45277161  1.0
  N  N84  1  0.70380985  0.11889865  0.29638923  1.0
  N  N85  1  0.71003128  0.33680686  0.08520321  1.0
  N  N86  1  0.75757330  0.36138104  0.16676581  1.0
  N  N87  1  0.77636528  0.04201285  0.04922652  1.0
  N  N88  1  0.78187324  0.83444904  0.85861267  1.0
  N  N89  1  0.78623683  0.78170265  0.66169633  1.0
  N  N90  1  0.78747502  0.32686381  0.44444779  1.0
  N  N91  1  0.78797027  0.51421288  0.67073138  1.0
  N  N92  1  0.82528458  0.04316021  0.54128207  1.0
  N  N93  1  0.85761202  0.79870745  0.75945936  1.0
  N  N94  1  0.90279559  0.93189757  0.28377522  1.0
  N  N95  1  0.90655731  0.25169592  0.68461531  1.0
  N  N96  1  0.92418070  0.61585891  0.43350039  1.0
  N  N97  1  0.97169678  0.17547938  0.12436498  1.0
  N  N98  1  0.98284082  0.06304560  0.90185464  1.0
  N  N99  1  0.99819183  0.34379236  0.69523102  1.0
