# generated using pymatgen
data_GaN
_symmetry_space_group_name_H-M   P1
_cell_length_a   11.60243706
_cell_length_b   11.85982567
_cell_length_c   11.87224435
_cell_angle_alpha   92.58298870
_cell_angle_beta   90.81675848
_cell_angle_gamma   96.53678982
_symmetry_Int_Tables_number   1
_chemical_formula_structural   GaN
_chemical_formula_sum   'Ga50 N50'
_cell_volume   1621.07626029
_cell_formula_units_Z   50
loop_
 _symmetry_equiv_pos_site_id
 _symmetry_equiv_pos_as_xyz
  1  'x, y, z'
loop_
 _atom_site_type_symbol
 _atom_site_label
 _atom_site_symmetry_multiplicity
 _atom_site_fract_x
 _atom_site_fract_y
 _atom_site_fract_z
 _atom_site_occupancy
  Ga  Ga0  1  0.05094252  0.33014268  0.39055889  1.0
  Ga  Ga1  1  0.08017398  0.86906629  0.04856230  1.0
  Ga  Ga2  1  0.09627841  0.17367314  0.72517106  1.0
  Ga  Ga3  1  0.11936360  0.76512887  0.26048783  1.0
  Ga  Ga4  1  0.12979608  0.34539409  0.94810194  1.0
  Ga  Ga5  1  0.13576720  0.17229921  0.48461100  1.0
  Ga  Ga6  1  0.14173220  0.23136927  0.18792239  1.0
  Ga  Ga7  1  0.14550913  0.49337399  0.12991133  1.0
  Ga  Ga8  1  0.19869785  0.07134003  0.95459415  1.0
  Ga  Ga9  1  0.21204143  0.01229723  0.22239861  1.0
  Ga  Ga10  1  0.24494428  0.44239378  0.47532395  1.0
  Ga  Ga11  1  0.29159527  0.37147668  0.71503297  1.0
  Ga  Ga12  1  0.29261829  0.76861563  0.05894597  1.0
  Ga  Ga13  1  0.33851992  0.27187358  0.09326560  1.0
  Ga  Ga14  1  0.35468511  0.23092067  0.40326810  1.0
  Ga  Ga15  1  0.38805468  0.65110989  0.67101747  1.0
  Ga  Ga16  1  0.41819360  0.53766827  0.08838411  1.0
  Ga  Ga17  1  0.43290704  0.22083050  0.62998813  1.0
  Ga  Ga18  1  0.44394415  0.35165351  0.86326988  1.0
  Ga  Ga19  1  0.45811783  0.95137049  0.05549540  1.0
  Ga  Ga20  1  0.47972152  0.41806678  0.26546416  1.0
  Ga  Ga21  1  0.48148290  0.43125407  0.54812688  1.0
  Ga  Ga22  1  0.53430218  0.10773056  0.76764626  1.0
  Ga  Ga23  1  0.55375170  0.16849543  0.42498912  1.0
  Ga  Ga24  1  0.58195697  0.86028117  0.24196863  1.0
  Ga  Ga25  1  0.59083910  0.18090839  0.00729423  1.0
  Ga  Ga26  1  0.59884869  0.59847081  0.73837878  1.0
  Ga  Ga27  1  0.61051815  0.72860060  0.00204211  1.0
  Ga  Ga28  1  0.66657438  0.33516559  0.72992455  1.0
  Ga  Ga29  1  0.66666667  0.62069806  0.42168295  1.0
  Ga  Ga30  1  0.67414861  0.54481905  0.21291949  1.0
  Ga  Ga31  1  0.67538981  0.51672057  0.94803075  1.0
  Ga  Ga32  1  0.67882840  0.95786308  0.68479305  1.0
  Ga  Ga33  1  0.74379768  0.44311855  0.55574627  1.0
  Ga  Ga34  1  0.74995035  0.33333333  0.00105160  1.0
  Ga  Ga35  1  0.75040403  0.96869842  0.38964337  1.0
  Ga  Ga36  1  0.75194500  0.98525335  0.07014361  1.0
  Ga  Ga37  1  0.76709409  0.18064268  0.82442460  1.0
  Ga  Ga38  1  0.79575675  0.18579932  0.24804848  1.0
  Ga  Ga39  1  0.80281460  0.23105875  0.49530486  1.0
  Ga  Ga40  1  0.82009239  0.78852927  0.62089368  1.0
  Ga  Ga41  1  0.82081928  0.79938415  0.21399100  1.0
  Ga  Ga42  1  0.83367354  0.77883473  0.91107271  1.0
  Ga  Ga43  1  0.89210408  0.07196723  0.60300190  1.0
  Ga  Ga44  1  0.90508561  0.40178923  0.22623860  1.0
  Ga  Ga45  1  0.93647282  0.62100901  0.08967525  1.0
  Ga  Ga46  1  0.93960994  0.46188517  0.93571820  1.0
  Ga  Ga47  1  0.94109200  0.98860055  0.86246795  1.0
  Ga  Ga48  1  0.94919562  0.21407411  0.01170571  1.0
  Ga  Ga49  1  0.98282942  0.04078299  0.16403242  1.0
  N  N50  1  0.02408331  0.60945094  0.39542784  1.0
  N  N51  1  0.03150863  0.91721365  0.38665471  1.0
  N  N52  1  0.06835568  0.97150654  0.46223422  1.0
  N  N53  1  0.07655984  0.37785501  0.23453116  1.0
  N  N54  1  0.09496991  0.05586311  0.82965437  1.0
  N  N55  1  0.12511902  0.81291988  0.61595181  1.0
  N  N56  1  0.15787703  0.31759315  0.79350802  1.0
  N  N57  1  0.16717476  0.63116080  0.90174266  1.0
  N  N58  1  0.18759802  0.76109798  0.57113808  1.0
  N  N59  1  0.18878063  0.60466199  0.81302296  1.0
  N  N60  1  0.21725350  0.15079662  0.32857846  1.0
  N  N61  1  0.27930690  0.23667978  0.56504591  1.0
  N  N62  1  0.29008690  0.89586598  0.83273683  1.0
  N  N63  1  0.32457005  0.68777751  0.35795855  1.0
  N  N64  1  0.33948392  0.90852984  0.75302963  1.0
  N  N65  1  0.33967369  0.49413339  0.61418001  1.0
  N  N66  1  0.34941417  0.94043945  0.43987436  1.0
  N  N67  1  0.36841881  0.13335601  0.98624878  1.0
  N  N68  1  0.38647638  0.39597442  0.00304135  1.0
  N  N69  1  0.39471186  0.39805599  0.40056728  1.0
  N  N70  1  0.40222130  0.69169855  0.30158435  1.0
  N  N71  1  0.41622968  0.64466146  0.84334859  1.0
  N  N72  1  0.42153541  0.97589400  0.38426788  1.0
  N  N73  1  0.42765127  0.70216254  0.92978938  1.0
  N  N74  1  0.45003380  0.17640968  0.90657839  1.0
  N  N75  1  0.50858041  0.81371902  0.54189289  1.0
  N  N76  1  0.54850625  0.21451176  0.17985708  1.0
  N  N77  1  0.56521661  0.79269893  0.46832973  1.0
  N  N78  1  0.58652458  0.44484425  0.81624599  1.0
  N  N79  1  0.59204686  0.58511303  0.07730231  1.0
  N  N80  1  0.60574883  0.02521788  0.02498083  1.0
  N  N81  1  0.61551701  0.20413336  0.25737687  1.0
  N  N82  1  0.61879793  0.54666642  0.56477073  1.0
  N  N83  1  0.68383460  0.10011905  0.46140572  1.0
  N  N84  1  0.69573010  0.66718895  0.86742636  1.0
  N  N85  1  0.74872365  0.82145081  0.05811497  1.0
  N  N86  1  0.81182557  0.92412294  0.53392873  1.0
  N  N87  1  0.82096959  0.02618034  0.23793904  1.0
  N  N88  1  0.82620276  0.04673203  0.75692677  1.0
  N  N89  1  0.83668464  0.53668472  0.19631591  1.0
  N  N90  1  0.84051614  0.60064301  0.48348758  1.0
  N  N91  1  0.84222838  0.27870569  0.12011222  1.0
  N  N92  1  0.87855873  0.29818619  0.36077584  1.0
  N  N93  1  0.89889140  0.04960968  0.01139135  1.0
  N  N94  1  0.91786810  0.57002386  0.77566982  1.0
  N  N95  1  0.93319168  0.60628174  0.43641901  1.0
  N  N96  1  0.96820507  0.64040944  0.73049636  1.0
  N  N97  1  0.97370982  0.32405832  0.63108030  1.0
  N  N98  1  0.98069445  0.77498219  0.15521487  1.0
  N  N99  1  0.98640186  0.41810080  0.61783392  1.0
