# generated using pymatgen
data_GaN
_symmetry_space_group_name_H-M   P1
_cell_length_a   11.22131187
_cell_length_b   11.32402653
_cell_length_c   11.74532956
_cell_angle_alpha   89.90125306
_cell_angle_beta   83.15370618
_cell_angle_gamma   89.07167378
_symmetry_Int_Tables_number   1
_chemical_formula_structural   GaN
_chemical_formula_sum   'Ga50 N50'
_cell_volume   1481.64745061
_cell_formula_units_Z   50
loop_
 _symmetry_equiv_pos_site_id
 _symmetry_equiv_pos_as_xyz
  1  'x, y, z'
loop_
 _atom_site_type_symbol
 _atom_site_label
 _atom_site_symmetry_multiplicity
 _atom_site_fract_x
 _atom_site_fract_y
 _atom_site_fract_z
 _atom_site_occupancy
  Ga  Ga0  1  0.00271200  0.14167778  0.47423914  1.0
  Ga  Ga1  1  0.00487783  0.13661816  0.95002092  1.0
  Ga  Ga2  1  0.01031378  0.91281370  0.03281004  1.0
  Ga  Ga3  1  0.02585904  0.64148023  0.31295893  1.0
  Ga  Ga4  1  0.03805925  0.53535504  0.56712059  1.0
  Ga  Ga5  1  0.08181932  0.67065598  0.88182576  1.0
  Ga  Ga6  1  0.11465664  0.91449432  0.25815591  1.0
  Ga  Ga7  1  0.13409819  0.21154698  0.16749183  1.0
  Ga  Ga8  1  0.15469662  0.41833949  0.27452414  1.0
  Ga  Ga9  1  0.19046187  0.33715659  0.73241126  1.0
  Ga  Ga10  1  0.22400346  0.65968375  0.69859786  1.0
  Ga  Ga11  1  0.22431560  0.11005741  0.89589467  1.0
  Ga  Ga12  1  0.22717509  0.86318356  0.99053084  1.0
  Ga  Ga13  1  0.23323423  0.12907924  0.39738333  1.0
  Ga  Ga14  1  0.25236186  0.72512223  0.42882325  1.0
  Ga  Ga15  1  0.25495287  0.58230215  0.05989550  1.0
  Ga  Ga16  1  0.28118244  0.87341626  0.73029672  1.0
  Ga  Ga17  1  0.29247324  0.44683611  0.52521631  1.0
  Ga  Ga18  1  0.35618718  0.30215866  0.93738339  1.0
  Ga  Ga19  1  0.36062444  0.08377666  0.14371152  1.0
  Ga  Ga20  1  0.37166912  0.43521810  0.25295186  1.0
  Ga  Ga21  1  0.40304242  0.16534356  0.65665491  1.0
  Ga  Ga22  1  0.43646279  0.20534348  0.43783549  1.0
  Ga  Ga23  1  0.44413594  0.78319143  0.30959775  1.0
  Ga  Ga24  1  0.49595401  0.98950133  0.83808296  1.0
  Ga  Ga25  1  0.50907456  0.43857247  0.98514046  1.0
  Ga  Ga26  1  0.51299835  0.44939750  0.41682169  1.0
  Ga  Ga27  1  0.55458638  0.20006047  0.18514299  1.0
  Ga  Ga28  1  0.55530482  0.63470837  0.16755676  1.0
  Ga  Ga29  1  0.57464949  0.97450104  0.32542909  1.0
  Ga  Ga30  1  0.61219262  0.88615805  0.07359958  1.0
  Ga  Ga31  1  0.62812397  0.16387010  0.96787408  1.0
  Ga  Ga32  1  0.65937764  0.09795320  0.58800721  1.0
  Ga  Ga33  1  0.71919943  0.22900257  0.36142086  1.0
  Ga  Ga34  1  0.72555928  0.53375391  0.26005829  1.0
  Ga  Ga35  1  0.72733471  0.62947748  0.92778405  1.0
  Ga  Ga36  1  0.77458698  0.34180491  0.91997947  1.0
  Ga  Ga37  1  0.79935189  0.95865117  0.85267593  1.0
  Ga  Ga38  1  0.80542810  0.17488078  0.75568607  1.0
  Ga  Ga39  1  0.80630468  0.30880445  0.57938808  1.0
  Ga  Ga40  1  0.81091224  0.61942427  0.49198446  1.0
  Ga  Ga41  1  0.82721041  0.80560123  0.23083893  1.0
  Ga  Ga42  1  0.83694243  0.04940701  0.15604853  1.0
  Ga  Ga43  1  0.84853214  0.29730074  0.11516214  1.0
  Ga  Ga44  1  0.88702165  0.73246940  0.77299162  1.0
  Ga  Ga45  1  0.91519199  0.39432423  0.36264677  1.0
  Ga  Ga46  1  0.97131483  0.52465797  0.10230131  1.0
  Ga  Ga47  1  0.97144427  0.36266442  0.70296990  1.0
  Ga  Ga48  1  0.97894043  0.46219122  0.89723073  1.0
  Ga  Ga49  1  0.99264998  0.81609297  0.51822313  1.0
  N  N50  1  0.03910607  0.49425067  0.40295004  1.0
  N  N51  1  0.04128023  0.03109682  0.67081405  1.0
  N  N52  1  0.06704607  0.93281418  0.65841134  1.0
  N  N53  1  0.09629733  0.78440398  0.37897440  1.0
  N  N54  1  0.11264962  0.56119187  0.17746875  1.0
  N  N55  1  0.16248967  0.44182758  0.87518347  1.0
  N  N56  1  0.20284795  0.06681596  0.24933209  1.0
  N  N57  1  0.20450775  0.60456206  0.54677246  1.0
  N  N58  1  0.22309899  0.70051817  0.95141963  1.0
  N  N59  1  0.23318468  0.43767114  0.95280323  1.0
  N  N60  1  0.25285815  0.83933616  0.15323781  1.0
  N  N61  1  0.26835969  0.98147255  0.50505432  1.0
  N  N62  1  0.27653375  0.18168738  0.03950243  1.0
  N  N63  1  0.30015663  0.00127746  0.59629923  1.0
  N  N64  1  0.30712808  0.23031750  0.79093331  1.0
  N  N65  1  0.31850116  0.96105336  0.86545061  1.0
  N  N66  1  0.36279555  0.85147355  0.17621305  1.0
  N  N67  1  0.36416079  0.54640987  0.74526944  1.0
  N  N68  1  0.40000301  0.53078630  0.83197390  1.0
  N  N69  1  0.41842196  0.52964736  0.11290727  1.0
  N  N70  1  0.43424947  0.92120790  0.10809441  1.0
  N  N71  1  0.46569565  0.72716361  0.91173822  1.0
  N  N72  1  0.48569683  0.31714239  0.30115868  1.0
  N  N73  1  0.49014745  0.78500157  0.83457198  1.0
  N  N74  1  0.49530578  0.82404713  0.58948368  1.0
  N  N75  1  0.52798092  0.06332897  0.69731652  1.0
  N  N76  1  0.55242864  0.43400867  0.63688586  1.0
  N  N77  1  0.55418883  0.34926269  0.68641979  1.0
  N  N78  1  0.56741503  0.82206036  0.51468189  1.0
  N  N79  1  0.60294906  0.11510469  0.43211796  1.0
  N  N80  1  0.62601176  0.99120469  0.93420868  1.0
  N  N81  1  0.64135972  0.72273871  0.04330720  1.0
  N  N82  1  0.64565407  0.64555143  0.72774973  1.0
  N  N83  1  0.66322607  0.64475776  0.63120889  1.0
  N  N84  1  0.66841107  0.47353042  0.93674435  1.0
  N  N85  1  0.68474916  0.41563452  0.40366710  1.0
  N  N86  1  0.70647463  0.92729629  0.20271583  1.0
  N  N87  1  0.73096424  0.19186285  0.20044936  1.0
  N  N88  1  0.77011957  0.45063921  0.48152690  1.0
  N  N89  1  0.78717461  0.96263894  0.55274319  1.0
  N  N90  1  0.83608788  0.66828160  0.33317520  1.0
  N  N91  1  0.86716461  0.43320821  0.21192030  1.0
  N  N92  1  0.87623971  0.23785370  0.42386314  1.0
  N  N93  1  0.88203990  0.01418496  0.98241225  1.0
  N  N94  1  0.89174100  0.97157410  0.51877860  1.0
  N  N95  1  0.90013767  0.69653555  0.09258367  1.0
  N  N96  1  0.91999916  0.68063194  0.59686221  1.0
  N  N97  1  0.95751441  0.92255355  0.20445135  1.0
  N  N98  1  0.96303135  0.74570765  0.01278222  1.0
  N  N99  1  0.98199311  0.18570586  0.11058397  1.0
