# generated using pymatgen
data_GaN
_symmetry_space_group_name_H-M   P1
_cell_length_a   11.33635251
_cell_length_b   11.58351494
_cell_length_c   11.82547497
_cell_angle_alpha   87.48477858
_cell_angle_beta   89.27708505
_cell_angle_gamma   91.10715149
_symmetry_Int_Tables_number   1
_chemical_formula_structural   GaN
_chemical_formula_sum   'Ga50 N50'
_cell_volume   1550.93339081
_cell_formula_units_Z   50
loop_
 _symmetry_equiv_pos_site_id
 _symmetry_equiv_pos_as_xyz
  1  'x, y, z'
loop_
 _atom_site_type_symbol
 _atom_site_label
 _atom_site_symmetry_multiplicity
 _atom_site_fract_x
 _atom_site_fract_y
 _atom_site_fract_z
 _atom_site_occupancy
  Ga  Ga0  1  0.02350588  0.17831585  0.96309263  1.0
  Ga  Ga1  1  0.02786027  0.98140195  0.74684809  1.0
  Ga  Ga2  1  0.03773176  0.43699044  0.35292022  1.0
  Ga  Ga3  1  0.04804283  0.99180133  0.19201757  1.0
  Ga  Ga4  1  0.08485130  0.42760437  0.12340340  1.0
  Ga  Ga5  1  0.10398409  0.87666744  0.93690188  1.0
  Ga  Ga6  1  0.11928101  0.11940708  0.45296766  1.0
  Ga  Ga7  1  0.14259948  0.49803990  0.86261694  1.0
  Ga  Ga8  1  0.17639452  0.86905894  0.56296982  1.0
  Ga  Ga9  1  0.18109764  0.22219406  0.21100658  1.0
  Ga  Ga10  1  0.21621614  0.11874230  0.68503223  1.0
  Ga  Ga11  1  0.24457595  0.77006460  0.75355966  1.0
  Ga  Ga12  1  0.25248435  0.07082431  0.01725479  1.0
  Ga  Ga13  1  0.28364062  0.64317226  0.00317278  1.0
  Ga  Ga14  1  0.30686558  0.97112969  0.27648664  1.0
  Ga  Ga15  1  0.33399400  0.44829534  0.27992308  1.0
  Ga  Ga16  1  0.34555604  0.84754548  0.95014392  1.0
  Ga  Ga17  1  0.36376404  0.97819366  0.75987449  1.0
  Ga  Ga18  1  0.38755838  0.05197204  0.49162865  1.0
  Ga  Ga19  1  0.39013835  0.77228239  0.40255479  1.0
  Ga  Ga20  1  0.39065569  0.52383582  0.74743500  1.0
  Ga  Ga21  1  0.40007481  0.30544805  0.55666885  1.0
  Ga  Ga22  1  0.41582900  0.65339000  0.21534946  1.0
  Ga  Ga23  1  0.44385463  0.23708765  0.80441153  1.0
  Ga  Ga24  1  0.51275234  0.12428495  0.97435458  1.0
  Ga  Ga25  1  0.52640394  0.18282504  0.21919528  1.0
  Ga  Ga26  1  0.54259316  0.46873397  0.48634975  1.0
  Ga  Ga27  1  0.55047199  0.86849391  0.54343291  1.0
  Ga  Ga28  1  0.57015159  0.45227052  0.27781813  1.0
  Ga  Ga29  1  0.61263636  0.98497828  0.36216505  1.0
  Ga  Ga30  1  0.61274344  0.09168848  0.69555738  1.0
  Ga  Ga31  1  0.61355048  0.57027368  0.72756161  1.0
  Ga  Ga32  1  0.61358385  0.25424605  0.42223788  1.0
  Ga  Ga33  1  0.64499217  0.69966050  0.25239081  1.0
  Ga  Ga34  1  0.69485300  0.34271130  0.66841443  1.0
  Ga  Ga35  1  0.69974375  0.32024225  0.13691929  1.0
  Ga  Ga36  1  0.72499197  0.05349502  0.89482137  1.0
  Ga  Ga37  1  0.76260819  0.06355258  0.12252929  1.0
  Ga  Ga38  1  0.78403960  0.52013334  0.00963632  1.0
  Ga  Ga39  1  0.79929864  0.52465177  0.24482056  1.0
  Ga  Ga40  1  0.80259499  0.86044641  0.34622787  1.0
  Ga  Ga41  1  0.80341969  0.56076376  0.46640391  1.0
  Ga  Ga42  1  0.85657816  0.06740917  0.42166693  1.0
  Ga  Ga43  1  0.86021249  0.86255779  0.85080602  1.0
  Ga  Ga44  1  0.87582855  0.78499520  0.10913006  1.0
  Ga  Ga45  1  0.90722447  0.26536621  0.21333365  1.0
  Ga  Ga46  1  0.91019370  0.30606802  0.51025286  1.0
  Ga  Ga47  1  0.91169113  0.19590240  0.74751687  1.0
  Ga  Ga48  1  0.97988726  0.60825056  0.96915889  1.0
  Ga  Ga49  1  0.98756828  0.78446808  0.49143429  1.0
  N  N50  1  0.05039477  0.26129108  0.10338339  1.0
  N  N51  1  0.06388343  0.14757703  0.79622955  1.0
  N  N52  1  0.08800158  0.02292244  0.03018251  1.0
  N  N53  1  0.09250378  0.34378109  0.62586984  1.0
  N  N54  1  0.10216106  0.01810181  0.59706390  1.0
  N  N55  1  0.12327451  0.76521330  0.27280809  1.0
  N  N56  1  0.13351122  0.67057797  0.25470012  1.0
  N  N57  1  0.13461264  0.55378594  0.02672887  1.0
  N  N58  1  0.15259616  0.40410941  0.67449418  1.0
  N  N59  1  0.15541543  0.07174437  0.29531531  1.0
  N  N60  1  0.16093819  0.60883445  0.54174620  1.0
  N  N61  1  0.17793475  0.38264108  0.27174811  1.0
  N  N62  1  0.21171666  0.57296561  0.46892539  1.0
  N  N63  1  0.23770560  0.35572499  0.88318527  1.0
  N  N64  1  0.27057694  0.61540311  0.82476655  1.0
  N  N65  1  0.27873721  0.17859526  0.52988779  1.0
  N  N66  1  0.30009794  0.90639099  0.45242710  1.0
  N  N67  1  0.30739699  0.19374905  0.10267973  1.0
  N  N68  1  0.32748573  0.36278799  0.82165627  1.0
  N  N69  1  0.38142271  0.01348091  0.93435420  1.0
  N  N70  1  0.41240669  0.66866441  0.59573694  1.0
  N  N71  1  0.42449629  0.21593277  0.09398495  1.0
  N  N72  1  0.45680718  0.06279013  0.33067381  1.0
  N  N73  1  0.46812791  0.48774972  0.03057299  1.0
  N  N74  1  0.48659197  0.99656786  0.62864400  1.0
  N  N75  1  0.49519423  0.85412950  0.10057170  1.0
  N  N76  1  0.50297205  0.71264436  0.62575117  1.0
  N  N77  1  0.52052892  0.43034856  0.97691970  1.0
  N  N78  1  0.54699725  0.25189142  0.67055330  1.0
  N  N79  1  0.57544544  0.73017108  0.88997746  1.0
  N  N80  1  0.58395733  0.90248744  0.10419578  1.0
  N  N81  1  0.65937371  0.75939559  0.93203010  1.0
  N  N82  1  0.68066998  0.49595496  0.58812188  1.0
  N  N83  1  0.69923945  0.11978147  0.40949164  1.0
  N  N84  1  0.70787155  0.84727823  0.63643505  1.0
  N  N85  1  0.71767448  0.49753353  0.85423709  1.0
  N  N86  1  0.73316014  0.77382860  0.69973733  1.0
  N  N87  1  0.74907698  0.39040581  0.83195977  1.0
  N  N88  1  0.76860607  0.65792971  0.13459618  1.0
  N  N89  1  0.81033406  0.33646520  0.91195979  1.0
  N  N90  1  0.81964978  0.24357629  0.62901644  1.0
  N  N91  1  0.85062690  0.72235276  0.43813659  1.0
  N  N92  1  0.85295276  0.22601588  0.89726156  1.0
  N  N93  1  0.90641992  0.90254653  0.20912871  1.0
  N  N94  1  0.94264771  0.46324414  0.47987962  1.0
  N  N95  1  0.94375618  0.58084131  0.72003321  1.0
  N  N96  1  0.94429802  0.44352067  0.22077329  1.0
  N  N97  1  0.95696888  0.67575659  0.69293731  1.0
  N  N98  1  0.96401362  0.77763089  0.97049952  1.0
  N  N99  1  0.97308468  0.20113151  0.40621412  1.0
