# generated using pymatgen
data_GaN
_symmetry_space_group_name_H-M   P1
_cell_length_a   10.72271763
_cell_length_b   11.37390667
_cell_length_c   12.68283556
_cell_angle_alpha   87.97467676
_cell_angle_beta   88.03531760
_cell_angle_gamma   87.80147531
_symmetry_Int_Tables_number   1
_chemical_formula_structural   GaN
_chemical_formula_sum   'Ga50 N50'
_cell_volume   1543.84429223
_cell_formula_units_Z   50
loop_
 _symmetry_equiv_pos_site_id
 _symmetry_equiv_pos_as_xyz
  1  'x, y, z'
loop_
 _atom_site_type_symbol
 _atom_site_label
 _atom_site_symmetry_multiplicity
 _atom_site_fract_x
 _atom_site_fract_y
 _atom_site_fract_z
 _atom_site_occupancy
  Ga  Ga0  1  0.04269014  0.65570840  0.17101004  1.0
  Ga  Ga1  1  0.04609045  0.82522431  0.56296600  1.0
  Ga  Ga2  1  0.06213816  0.52523356  0.00210217  1.0
  Ga  Ga3  1  0.07132834  0.03060053  0.90014354  1.0
  Ga  Ga4  1  0.09656727  0.50582444  0.59058258  1.0
  Ga  Ga5  1  0.13389153  0.61175821  0.37034893  1.0
  Ga  Ga6  1  0.15622815  0.25329806  0.90424700  1.0
  Ga  Ga7  1  0.16867451  0.61196874  0.82181275  1.0
  Ga  Ga8  1  0.17044790  0.10078481  0.06485795  1.0
  Ga  Ga9  1  0.18293717  0.85134560  0.05699196  1.0
  Ga  Ga10  1  0.18614833  0.89317268  0.70116560  1.0
  Ga  Ga11  1  0.19360555  0.15986360  0.47874618  1.0
  Ga  Ga12  1  0.20024270  0.38959132  0.40375992  1.0
  Ga  Ga13  1  0.20190564  0.31647186  0.14296471  1.0
  Ga  Ga14  1  0.22710835  0.13031895  0.67670200  1.0
  Ga  Ga15  1  0.29265824  0.70199108  0.59327401  1.0
  Ga  Ga16  1  0.32142702  0.46407579  0.92199010  1.0
  Ga  Ga17  1  0.34236631  0.41909660  0.57944362  1.0
  Ga  Ga18  1  0.36096817  0.03592004  0.85274001  1.0
  Ga  Ga19  1  0.39377921  0.31480397  0.27215567  1.0
  Ga  Ga20  1  0.39868718  0.32528577  0.75317548  1.0
  Ga  Ga21  1  0.44263177  0.70094484  0.79142141  1.0
  Ga  Ga22  1  0.45982496  0.85516874  0.62146937  1.0
  Ga  Ga23  1  0.47906389  0.24280645  0.50649176  1.0
  Ga  Ga24  1  0.50750597  0.08271792  0.65984631  1.0
  Ga  Ga25  1  0.52386980  0.45886954  0.39261446  1.0
  Ga  Ga26  1  0.55606378  0.43077138  0.92522850  1.0
  Ga  Ga27  1  0.62856678  0.79832560  0.86711632  1.0
  Ga  Ga28  1  0.64885734  0.47040267  0.69147456  1.0
  Ga  Ga29  1  0.66235919  0.19520311  0.81716211  1.0
  Ga  Ga30  1  0.68595408  0.99823035  0.44925972  1.0
  Ga  Ga31  1  0.72130293  0.21010428  0.13749339  1.0
  Ga  Ga32  1  0.73343453  0.28059421  0.34435727  1.0
  Ga  Ga33  1  0.74887352  0.91913816  0.68937494  1.0
  Ga  Ga34  1  0.75067536  0.54965611  0.93506546  1.0
  Ga  Ga35  1  0.75659183  0.02693542  0.96245064  1.0
  Ga  Ga36  1  0.78186094  0.45757095  0.52174821  1.0
  Ga  Ga37  1  0.78579233  0.17831071  0.56162806  1.0
  Ga  Ga38  1  0.79847648  0.77644901  0.08125626  1.0
  Ga  Ga39  1  0.83438369  0.56152470  0.30945557  1.0
  Ga  Ga40  1  0.84300314  0.69613492  0.48724067  1.0
  Ga  Ga41  1  0.84905270  0.83783359  0.32532006  1.0
  Ga  Ga42  1  0.88374454  0.64807859  0.70994188  1.0
  Ga  Ga43  1  0.89509564  0.27557503  0.98067236  1.0
  Ga  Ga44  1  0.93957761  0.43645442  0.81048400  1.0
  Ga  Ga45  1  0.95224148  0.02643141  0.11875300  1.0
  Ga  Ga46  1  0.95329384  0.23443396  0.28939110  1.0
  Ga  Ga47  1  0.95727659  0.16607914  0.72244228  1.0
  Ga  Ga48  1  0.95738254  0.02529818  0.48518703  1.0
  Ga  Ga49  1  0.97696608  0.31530380  0.55017408  1.0
  N  N50  1  0.02760835  0.38331629  0.21906265  1.0
  N  N51  1  0.03951503  0.55370668  0.73220311  1.0
  N  N52  1  0.06959549  0.27166483  0.41817935  1.0
  N  N53  1  0.08611176  0.03876305  0.74811371  1.0
  N  N54  1  0.13827066  0.66727992  0.51751013  1.0
  N  N55  1  0.16919884  0.89801680  0.32357518  1.0
  N  N56  1  0.18573836  0.38652945  0.99983943  1.0
  N  N57  1  0.22540035  0.92250925  0.25035631  1.0
  N  N58  1  0.24222923  0.97036549  0.95547057  1.0
  N  N59  1  0.26294074  0.73315491  0.75356342  1.0
  N  N60  1  0.29576830  0.19865021  0.80822760  1.0
  N  N61  1  0.32656518  0.60258318  0.08013313  1.0
  N  N62  1  0.33870343  0.23623865  0.40572343  1.0
  N  N63  1  0.34133641  0.66962884  0.32555214  1.0
  N  N64  1  0.34722951  0.98155844  0.70148461  1.0
  N  N65  1  0.35377247  0.69656282  0.06266882  1.0
  N  N66  1  0.36981350  0.95680350  0.44471853  1.0
  N  N67  1  0.40167174  0.74218991  0.29440778  1.0
  N  N68  1  0.41210351  0.56934383  0.61369118  1.0
  N  N69  1  0.41779183  0.15768543  0.03511181  1.0
  N  N70  1  0.44567156  0.99377685  0.39138219  1.0
  N  N71  1  0.47261489  0.23501662  0.05811985  1.0
  N  N72  1  0.48574269  0.93309253  0.13835751  1.0
  N  N73  1  0.49627028  0.58557580  0.68215646  1.0
  N  N74  1  0.54551145  0.05612780  0.84016669  1.0
  N  N75  1  0.55473810  0.97490500  0.18746688  1.0
  N  N76  1  0.55553783  0.67099418  0.44720335  1.0
  N  N77  1  0.57504317  0.34414358  0.78844173  1.0
  N  N78  1  0.58505959  0.54567636  0.16742214  1.0
  N  N79  1  0.59130709  0.64367044  0.16775002  1.0
  N  N80  1  0.60736036  0.95208532  0.59440008  1.0
  N  N81  1  0.62302664  0.96848252  0.88364197  1.0
  N  N82  1  0.63556455  0.70026514  0.49562409  1.0
  N  N83  1  0.64769717  0.18539160  0.45727509  1.0
  N  N84  1  0.70965924  0.45340140  0.37358753  1.0
  N  N85  1  0.72796678  0.71114144  0.96637923  1.0
  N  N86  1  0.73804400  0.19495414  0.95838576  1.0
  N  N87  1  0.77997906  0.11677351  0.71103943  1.0
  N  N88  1  0.78064953  0.53251228  0.77725903  1.0
  N  N89  1  0.81486982  0.93877079  0.07471857  1.0
  N  N90  1  0.86083784  0.70973254  0.21320250  1.0
  N  N91  1  0.87146923  0.78295641  0.61972576  1.0
  N  N92  1  0.90368695  0.45530881  0.96723957  1.0
  N  N93  1  0.90778275  0.19875382  0.12433030  1.0
  N  N94  1  0.93662556  0.98034112  0.27041622  1.0
  N  N95  1  0.96360334  0.06127229  0.33298061  1.0
  N  N96  1  0.98285166  0.48379525  0.22469059  1.0
  N  N97  1  0.98653624  0.78196764  0.84524319  1.0
  N  N98  1  0.98880415  0.27444060  0.83824936  1.0
  N  N99  1  0.99259116  0.83884716  0.91691245  1.0
