# generated using pymatgen
data_GaN
_symmetry_space_group_name_H-M   P1
_cell_length_a   11.53170216
_cell_length_b   11.64254486
_cell_length_c   11.69105154
_cell_angle_alpha   87.55128247
_cell_angle_beta   86.39916260
_cell_angle_gamma   89.96102549
_symmetry_Int_Tables_number   1
_chemical_formula_structural   GaN
_chemical_formula_sum   'Ga50 N50'
_cell_volume   1565.08906490
_cell_formula_units_Z   50
loop_
 _symmetry_equiv_pos_site_id
 _symmetry_equiv_pos_as_xyz
  1  'x, y, z'
loop_
 _atom_site_type_symbol
 _atom_site_label
 _atom_site_symmetry_multiplicity
 _atom_site_fract_x
 _atom_site_fract_y
 _atom_site_fract_z
 _atom_site_occupancy
  Ga  Ga0  1  0.00850559  0.87102734  0.18707240  1.0
  Ga  Ga1  1  0.01201045  0.38049753  0.41067853  1.0
  Ga  Ga2  1  0.01501097  0.50571859  0.66044263  1.0
  Ga  Ga3  1  0.02910326  0.58059272  0.87318638  1.0
  Ga  Ga4  1  0.05785314  0.10932596  0.47223232  1.0
  Ga  Ga5  1  0.06549789  0.46981539  0.06510165  1.0
  Ga  Ga6  1  0.06997358  0.03243548  0.75548817  1.0
  Ga  Ga7  1  0.09188303  0.17634296  0.26773575  1.0
  Ga  Ga8  1  0.14185951  0.03665263  0.96998763  1.0
  Ga  Ga9  1  0.16739860  0.32395924  0.85727602  1.0
  Ga  Ga10  1  0.18118555  0.77348820  0.32518568  1.0
  Ga  Ga11  1  0.19083888  0.70033516  0.06319135  1.0
  Ga  Ga12  1  0.19627322  0.56767286  0.43308723  1.0
  Ga  Ga13  1  0.23832468  0.25018107  0.10886590  1.0
  Ga  Ga14  1  0.24061321  0.25318303  0.62706495  1.0
  Ga  Ga15  1  0.24341994  0.81352250  0.83465447  1.0
  Ga  Ga16  1  0.25941968  0.94269080  0.17153721  1.0
  Ga  Ga17  1  0.26474589  0.49133673  0.22005471  1.0
  Ga  Ga18  1  0.28873208  0.46290139  0.60167481  1.0
  Ga  Ga19  1  0.28924063  0.54610703  0.87483028  1.0
  Ga  Ga20  1  0.37647892  0.06530160  0.77984858  1.0
  Ga  Ga21  1  0.41020445  0.71811608  0.23202021  1.0
  Ga  Ga22  1  0.45776922  0.73551481  0.98845921  1.0
  Ga  Ga23  1  0.48264905  0.54484580  0.41318389  1.0
  Ga  Ga24  1  0.49297401  0.77525129  0.72216298  1.0
  Ga  Ga25  1  0.49701679  0.33559398  0.75712009  1.0
  Ga  Ga26  1  0.50081498  0.75823107  0.48951384  1.0
  Ga  Ga27  1  0.50452486  0.95265271  0.22020545  1.0
  Ga  Ga28  1  0.55560562  0.93679298  0.94254015  1.0
  Ga  Ga29  1  0.56249185  0.54957044  0.64846433  1.0
  Ga  Ga30  1  0.56410736  0.47389750  0.18918599  1.0
  Ga  Ga31  1  0.57234166  0.33012646  0.50198248  1.0
  Ga  Ga32  1  0.60681588  0.05004575  0.67715962  1.0
  Ga  Ga33  1  0.67448977  0.17819624  0.85411368  1.0
  Ga  Ga34  1  0.69359745  0.75063158  0.34628376  1.0
  Ga  Ga35  1  0.72330275  0.71601670  0.57648256  1.0
  Ga  Ga36  1  0.73636471  0.73797134  0.99686348  1.0
  Ga  Ga37  1  0.74525021  0.41426197  0.62877264  1.0
  Ga  Ga38  1  0.75944480  0.47362280  0.40082771  1.0
  Ga  Ga39  1  0.77427842  0.48739428  0.05132523  1.0
  Ga  Ga40  1  0.77587892  0.91179293  0.81596184  1.0
  Ga  Ga41  1  0.84795570  0.32801142  0.87846993  1.0
  Ga  Ga42  1  0.86516405  0.07996925  0.95938446  1.0
  Ga  Ga43  1  0.88291677  0.91474156  0.61640008  1.0
  Ga  Ga44  1  0.91748545  0.62649737  0.17087679  1.0
  Ga  Ga45  1  0.94312873  0.66456972  0.40889868  1.0
  Ga  Ga46  1  0.95612326  0.71376117  0.66413888  1.0
  Ga  Ga47  1  0.98471182  0.82944318  0.95999543  1.0
  Ga  Ga48  1  0.98973069  0.24311469  0.66666667  1.0
  Ga  Ga49  1  0.99958096  0.18838028  0.07582586  1.0
  N  N50  1  0.03369066  0.53430699  0.48663362  1.0
  N  N51  1  0.03903449  0.71336298  0.25779906  1.0
  N  N52  1  0.08192236  0.19732753  0.79427034  1.0
  N  N53  1  0.10075100  0.25829007  0.53633831  1.0
  N  N54  1  0.10641120  0.31475907  0.01855088  1.0
  N  N55  1  0.11450530  0.73571874  0.91729469  1.0
  N  N56  1  0.16499643  0.48025514  0.77150376  1.0
  N  N57  1  0.17918396  0.80542019  0.57565821  1.0
  N  N58  1  0.22085954  0.97484124  0.81302651  1.0
  N  N59  1  0.22536945  0.54264000  0.05189794  1.0
  N  N60  1  0.23934825  0.74696033  0.62450046  1.0
  N  N61  1  0.32453116  0.78488992  0.10462563  1.0
  N  N62  1  0.32963737  0.22183681  0.35402233  1.0
  N  N63  1  0.34327249  0.99032991  0.41041751  1.0
  N  N64  1  0.34675375  0.10574411  0.97584433  1.0
  N  N65  1  0.35165919  0.95360860  0.49969187  1.0
  N  N66  1  0.35320782  0.38216267  0.88276818  1.0
  N  N67  1  0.36743421  0.70377747  0.84365601  1.0
  N  N68  1  0.36783839  0.31009066  0.35314240  1.0
  N  N69  1  0.38274400  0.34521940  0.07798433  1.0
  N  N70  1  0.38701821  0.14920205  0.58943897  1.0
  N  N71  1  0.38781680  0.02857651  0.02811314  1.0
  N  N72  1  0.41179519  0.38934703  0.98207322  1.0
  N  N73  1  0.41930876  0.55681800  0.25677543  1.0
  N  N74  1  0.45556788  0.45326371  0.56267604  1.0
  N  N75  1  0.48853942  0.15865141  0.55663495  1.0
  N  N76  1  0.49801095  0.93658855  0.77693704  1.0
  N  N77  1  0.52087937  0.17324698  0.79533366  1.0
  N  N78  1  0.52537960  0.80474048  0.30617081  1.0
  N  N79  1  0.55768759  0.20095985  0.16074725  1.0
  N  N80  1  0.56214485  0.53659739  0.88885484  1.0
  N  N81  1  0.60360448  0.43362123  0.35869993  1.0
  N  N82  1  0.61449057  0.22640445  0.08187820  1.0
  N  N83  1  0.65426991  0.50773896  0.90257001  1.0
  N  N84  1  0.70513298  0.02691541  0.92922722  1.0
  N  N85  1  0.72090771  0.02656772  0.23634685  1.0
  N  N86  1  0.72783093  0.15743974  0.47392298  1.0
  N  N87  1  0.76970506  0.64257548  0.74407082  1.0
  N  N88  1  0.77838992  0.95635677  0.27186053  1.0
  N  N89  1  0.79376546  0.28702893  0.26152179  1.0
  N  N90  1  0.80773088  0.62058559  0.31667391  1.0
  N  N91  1  0.81725681  0.68180876  0.82116942  1.0
  N  N92  1  0.82492610  0.17043826  0.46526680  1.0
  N  N93  1  0.84485851  0.30007226  0.17656827  1.0
  N  N94  1  0.87878159  0.76749887  0.07745745  1.0
  N  N95  1  0.89514183  0.37729907  0.70281677  1.0
  N  N96  1  0.93462517  0.86273264  0.44644515  1.0
  N  N97  1  0.95031307  0.96259754  0.86897070  1.0
  N  N98  1  0.98049990  0.93014664  0.37803516  1.0
  N  N99  1  0.98440857  0.05005731  0.61750224  1.0
