# generated using pymatgen
data_GaN
_symmetry_space_group_name_H-M   P1
_cell_length_a   11.16230563
_cell_length_b   11.99074663
_cell_length_c   11.21063412
_cell_angle_alpha   88.02097582
_cell_angle_beta   88.59465625
_cell_angle_gamma   89.84953111
_symmetry_Int_Tables_number   1
_chemical_formula_structural   GaN
_chemical_formula_sum   'Ga50 N50'
_cell_volume   1499.13193385
_cell_formula_units_Z   50
loop_
 _symmetry_equiv_pos_site_id
 _symmetry_equiv_pos_as_xyz
  1  'x, y, z'
loop_
 _atom_site_type_symbol
 _atom_site_label
 _atom_site_symmetry_multiplicity
 _atom_site_fract_x
 _atom_site_fract_y
 _atom_site_fract_z
 _atom_site_occupancy
  Ga  Ga0  1  0.01086955  0.95799707  0.63316587  1.0
  Ga  Ga1  1  0.04677877  0.61455735  0.63268198  1.0
  Ga  Ga2  1  0.10110652  0.91553581  0.38964966  1.0
  Ga  Ga3  1  0.11667383  0.81850275  0.83621470  1.0
  Ga  Ga4  1  0.12057950  0.13687293  0.27636464  1.0
  Ga  Ga5  1  0.16069596  0.37157530  0.68917168  1.0
  Ga  Ga6  1  0.16667125  0.01185942  0.05260788  1.0
  Ga  Ga7  1  0.20645486  0.13993888  0.55101209  1.0
  Ga  Ga8  1  0.22089126  0.79387639  0.55150383  1.0
  Ga  Ga9  1  0.22416237  0.14022042  0.82536705  1.0
  Ga  Ga10  1  0.28180413  0.78795500  0.08011125  1.0
  Ga  Ga11  1  0.32156973  0.96661903  0.72298328  1.0
  Ga  Ga12  1  0.33599691  0.40630267  0.85721496  1.0
  Ga  Ga13  1  0.34755212  0.22708673  0.38345883  1.0
  Ga  Ga14  1  0.40455074  0.01933576  0.97168972  1.0
  Ga  Ga15  1  0.43314916  0.96969848  0.46055446  1.0
  Ga  Ga16  1  0.44166101  0.34925392  0.64460632  1.0
  Ga  Ga17  1  0.45862183  0.89249538  0.16079085  1.0
  Ga  Ga18  1  0.48094846  0.63480020  0.76626957  1.0
  Ga  Ga19  1  0.49146083  0.61785377  0.04680446  1.0
  Ga  Ga20  1  0.49222191  0.71436194  0.35448704  1.0
  Ga  Ga21  1  0.54763888  0.74980963  0.59928373  1.0
  Ga  Ga22  1  0.55354293  0.08859736  0.76694578  1.0
  Ga  Ga23  1  0.55534105  0.21368769  0.21309108  1.0
  Ga  Ga24  1  0.56597426  0.29070577  0.45196373  1.0
  Ga  Ga25  1  0.57821244  0.24772641  0.98751420  1.0
  Ga  Ga26  1  0.61091186  0.84218003  0.83747007  1.0
  Ga  Ga27  1  0.62417376  0.49956327  0.22421674  1.0
  Ga  Ga28  1  0.63872584  0.04092853  0.40566818  1.0
  Ga  Ga29  1  0.65550999  0.47420922  0.81883800  1.0
  Ga  Ga30  1  0.67428421  0.52342312  0.52435876  1.0
  Ga  Ga31  1  0.68256678  0.84316605  0.14141247  1.0
  Ga  Ga32  1  0.68711579  0.18128038  0.61370517  1.0
  Ga  Ga33  1  0.73781453  0.65435271  0.96201288  1.0
  Ga  Ga34  1  0.75401265  0.77279429  0.41586475  1.0
  Ga  Ga35  1  0.75864317  0.16770406  0.87416025  1.0
  Ga  Ga36  1  0.79931213  0.90722919  0.57181875  1.0
  Ga  Ga37  1  0.80558315  0.11309458  0.15900792  1.0
  Ga  Ga38  1  0.81269237  0.91989876  0.92502483  1.0
  Ga  Ga39  1  0.82062368  0.38026431  0.03625194  1.0
  Ga  Ga40  1  0.82358809  0.39048821  0.34897645  1.0
  Ga  Ga41  1  0.84468273  0.63682774  0.15425914  1.0
  Ga  Ga42  1  0.85137993  0.71334085  0.72887263  1.0
  Ga  Ga43  1  0.86672111  0.38325837  0.58890923  1.0
  Ga  Ga44  1  0.90853745  0.44784166  0.83602619  1.0
  Ga  Ga45  1  0.92051899  0.14031038  0.48936746  1.0
  Ga  Ga46  1  0.93547282  0.88570486  0.22979455  1.0
  Ga  Ga47  1  0.96077198  0.15301529  0.71806356  1.0
  Ga  Ga48  1  0.96987300  0.10070931  0.97370210  1.0
  Ga  Ga49  1  0.99281223  0.75799215  0.03333445  1.0
  N  N50  1  0.00049687  0.44986121  0.68161940  1.0
  N  N51  1  0.07891462  0.39713213  0.34716148  1.0
  N  N52  1  0.07915070  0.06850653  0.45813209  1.0
  N  N53  1  0.08453597  0.33333333  0.08353349  1.0
  N  N54  1  0.08565133  0.56585563  0.96297050  1.0
  N  N55  1  0.09298402  0.32013728  0.98531779  1.0
  N  N56  1  0.11119877  0.56564286  0.86506402  1.0
  N  N57  1  0.12864628  0.20974836  0.69610320  1.0
  N  N58  1  0.12939143  0.39293495  0.43255509  1.0
  N  N59  1  0.14090825  0.85071558  0.00775251  1.0
  N  N60  1  0.15261867  0.68903982  0.25310492  1.0
  N  N61  1  0.16450648  0.89723136  0.69124149  1.0
  N  N62  1  0.17902104  0.65943933  0.34493214  1.0
  N  N63  1  0.24546106  0.94978508  0.26530183  1.0
  N  N64  1  0.25161940  0.48930280  0.16988966  1.0
  N  N65  1  0.25185023  0.71212715  0.80088213  1.0
  N  N66  1  0.31291472  0.29142489  0.06350139  1.0
  N  N67  1  0.32505555  0.45812994  0.22857686  1.0
  N  N68  1  0.32976944  0.66744401  0.86764228  1.0
  N  N69  1  0.33033519  0.65897525  0.98692970  1.0
  N  N70  1  0.33135188  0.48901872  0.49164977  1.0
  N  N71  1  0.34927479  0.21421734  0.11037383  1.0
  N  N72  1  0.34946744  0.05458361  0.57961861  1.0
  N  N73  1  0.35094480  0.96700979  0.28992077  1.0
  N  N74  1  0.36503324  0.23675816  0.83373801  1.0
  N  N75  1  0.38274731  0.56613007  0.46270613  1.0
  N  N76  1  0.40926978  0.80777340  0.49052276  1.0
  N  N77  1  0.45523579  0.17715852  0.88853500  1.0
  N  N78  1  0.47094699  0.94614938  0.81914975  1.0
  N  N79  1  0.52331072  0.47796462  0.71881732  1.0
  N  N80  1  0.52899207  0.63683691  0.21316900  1.0
  N  N81  1  0.57083527  0.46907068  0.06339944  1.0
  N  N82  1  0.57739033  0.68771752  0.90597805  1.0
  N  N83  1  0.62121536  0.67492871  0.46380648  1.0
  N  N84  1  0.64202974  0.40498535  0.98368668  1.0
  N  N85  1  0.64625683  0.42278900  0.38002937  1.0
  N  N86  1  0.66184853  0.09541480  0.24770820  1.0
  N  N87  1  0.69986147  0.81463205  0.68554406  1.0
  N  N88  1  0.76800342  0.06156374  0.51848379  1.0
  N  N89  1  0.79357280  0.57311012  0.82088057  1.0
  N  N90  1  0.80275712  0.77217889  0.24960708  1.0
  N  N91  1  0.81191856  0.47587554  0.18936179  1.0
  N  N92  1  0.81206194  0.25562174  0.71755680  1.0
  N  N93  1  0.84219488  0.21503367  0.02523505  1.0
  N  N94  1  0.86847994  0.97154468  0.09045121  1.0
  N  N95  1  0.87431363  0.64163055  0.48325529  1.0
  N  N96  1  0.89360730  0.23547679  0.34602262  1.0
  N  N97  1  0.93398480  0.17372964  0.26158756  1.0
  N  N98  1  0.93568434  0.80038980  0.86861367  1.0
  N  N99  1  0.95840138  0.59693396  0.44350623  1.0
