# generated using pymatgen
data_GaN
_symmetry_space_group_name_H-M   P1
_cell_length_a   11.22754694
_cell_length_b   11.45982188
_cell_length_c   12.15697066
_cell_angle_alpha   91.38162662
_cell_angle_beta   90.03154698
_cell_angle_gamma   90.51467157
_symmetry_Int_Tables_number   1
_chemical_formula_structural   GaN
_chemical_formula_sum   'Ga50 N50'
_cell_volume   1563.66669638
_cell_formula_units_Z   50
loop_
 _symmetry_equiv_pos_site_id
 _symmetry_equiv_pos_as_xyz
  1  'x, y, z'
loop_
 _atom_site_type_symbol
 _atom_site_label
 _atom_site_symmetry_multiplicity
 _atom_site_fract_x
 _atom_site_fract_y
 _atom_site_fract_z
 _atom_site_occupancy
  Ga  Ga0  1  0.02536925  0.93119365  0.89883965  1.0
  Ga  Ga1  1  0.04052418  0.72727868  0.18718901  1.0
  Ga  Ga2  1  0.05440355  0.61982472  0.90863647  1.0
  Ga  Ga3  1  0.06057236  0.14587001  0.74775926  1.0
  Ga  Ga4  1  0.06943651  0.67447959  0.45932514  1.0
  Ga  Ga5  1  0.09128278  0.94793680  0.56582762  1.0
  Ga  Ga6  1  0.11225046  0.56687757  0.69173301  1.0
  Ga  Ga7  1  0.11663718  0.36102180  0.92204985  1.0
  Ga  Ga8  1  0.15680516  0.39529445  0.34219266  1.0
  Ga  Ga9  1  0.18280703  0.16601187  0.43177861  1.0
  Ga  Ga10  1  0.19683934  0.78399736  0.78557074  1.0
  Ga  Ga11  1  0.20215941  0.30335351  0.16895223  1.0
  Ga  Ga12  1  0.20620458  0.85826069  0.00145442  1.0
  Ga  Ga13  1  0.21060296  0.89941760  0.32518670  1.0
  Ga  Ga14  1  0.23290551  0.38521196  0.55306205  1.0
  Ga  Ga15  1  0.25131281  0.59427835  0.30730221  1.0
  Ga  Ga16  1  0.26015338  0.58160578  0.04838233  1.0
  Ga  Ga17  1  0.28416391  0.37610705  0.76915077  1.0
  Ga  Ga18  1  0.29474010  0.10746218  0.84829260  1.0
  Ga  Ga19  1  0.32090138  0.66826611  0.55257217  1.0
  Ga  Ga20  1  0.33488395  0.91226537  0.58234451  1.0
  Ga  Ga21  1  0.39252381  0.04936434  0.12007211  1.0
  Ga  Ga22  1  0.40281437  0.36539956  0.03903485  1.0
  Ga  Ga23  1  0.42153017  0.76611476  0.91664104  1.0
  Ga  Ga24  1  0.42646761  0.26755370  0.30790806  1.0
  Ga  Ga25  1  0.43104905  0.77917743  0.18066339  1.0
  Ga  Ga26  1  0.46384489  0.97560258  0.36147017  1.0
  Ga  Ga27  1  0.48217768  0.64742352  0.41162704  1.0
  Ga  Ga28  1  0.49463988  0.03108344  0.92507068  1.0
  Ga  Ga29  1  0.51081411  0.54887094  0.13708651  1.0
  Ga  Ga30  1  0.52675169  0.83263687  0.70584153  1.0
  Ga  Ga31  1  0.56338254  0.34615643  0.82108069  1.0
  Ga  Ga32  1  0.62988212  0.83402208  0.41265012  1.0
  Ga  Ga33  1  0.63051407  0.11478223  0.30171059  1.0
  Ga  Ga34  1  0.65548923  0.79413397  0.18629140  1.0
  Ga  Ga35  1  0.65723286  0.01391406  0.10734654  1.0
  Ga  Ga36  1  0.68813879  0.37574621  0.42008828  1.0
  Ga  Ga37  1  0.68842685  0.59268564  0.35354800  1.0
  Ga  Ga38  1  0.71457546  0.77795116  0.60875724  1.0
  Ga  Ga39  1  0.72363721  0.92015347  0.88003781  1.0
  Ga  Ga40  1  0.77836193  0.17777968  0.87091418  1.0
  Ga  Ga41  1  0.80365992  0.99182459  0.35328134  1.0
  Ga  Ga42  1  0.84068613  0.58579366  0.17031191  1.0
  Ga  Ga43  1  0.85975462  0.31652222  0.71201278  1.0
  Ga  Ga44  1  0.86038110  0.78977139  0.43226629  1.0
  Ga  Ga45  1  0.88681972  0.12022943  0.51830653  1.0
  Ga  Ga46  1  0.91360218  0.54844666  0.36721400  1.0
  Ga  Ga47  1  0.91400668  0.34907408  0.50872011  1.0
  Ga  Ga48  1  0.91651306  0.79572231  0.70130923  1.0
  Ga  Ga49  1  0.93750072  0.92495878  0.19073111  1.0
  N  N50  1  0.02337375  0.09423958  0.59964284  1.0
  N  N51  1  0.02749861  0.19898107  0.06920852  1.0
  N  N52  1  0.04076914  0.69774294  0.76486473  1.0
  N  N53  1  0.08489983  0.31724522  0.47132211  1.0
  N  N54  1  0.09815427  0.02078448  0.24321379  1.0
  N  N55  1  0.12054601  0.12088660  0.26995802  1.0
  N  N56  1  0.12889296  0.68657689  0.04594609  1.0
  N  N57  1  0.15245095  0.49150873  0.82436880  1.0
  N  N58  1  0.15335679  0.73658524  0.32237500  1.0
  N  N59  1  0.16420787  0.01203962  0.78443204  1.0
  N  N60  1  0.17572445  0.56732274  0.54686432  1.0
  N  N61  1  0.19043551  0.24117183  0.82666772  1.0
  N  N62  1  0.19169271  0.92428037  0.70037528  1.0
  N  N63  1  0.22547230  0.99279110  0.46378560  1.0
  N  N64  1  0.23088410  0.41353910  0.04541661  1.0
  N  N65  1  0.30286589  0.29803571  0.41311102  1.0
  N  N66  1  0.32447747  0.67770362  0.71040948  1.0
  N  N67  1  0.35508743  0.92388340  0.23738679  1.0
  N  N68  1  0.36307324  0.22622717  0.15518723  1.0
  N  N69  1  0.40791381  0.15135867  0.62448018  1.0
  N  N70  1  0.41139497  0.63047493  0.26284258  1.0
  N  N71  1  0.41147104  0.66883588  0.04403479  1.0
  N  N72  1  0.41812211  0.35834244  0.87688303  1.0
  N  N73  1  0.42196634  0.71050081  0.76208662  1.0
  N  N74  1  0.48291101  0.21147952  0.60289877  1.0
  N  N75  1  0.52556855  0.45240299  0.66491286  1.0
  N  N76  1  0.55451550  0.87564914  0.86879629  1.0
  N  N77  1  0.56364806  0.51638732  0.60523136  1.0
  N  N78  1  0.59229437  0.27415790  0.33071983  1.0
  N  N79  1  0.63907142  0.02438965  0.61256780  1.0
  N  N80  1  0.64104575  0.55140813  0.88888162  1.0
  N  N81  1  0.66519725  0.62651687  0.83594388  1.0
  N  N82  1  0.66992628  0.61330994  0.18802456  1.0
  N  N83  1  0.67322528  0.34709751  0.05199445  1.0
  N  N84  1  0.67769450  0.07187112  0.94419413  1.0
  N  N85  1  0.70705964  0.27782385  0.10710082  1.0
  N  N86  1  0.70911745  0.30099765  0.78954668  1.0
  N  N87  1  0.72026029  0.07459074  0.64331666  1.0
  N  N88  1  0.79885738  0.58667348  0.61818257  1.0
  N  N89  1  0.82689970  0.68573834  0.02371851  1.0
  N  N90  1  0.87327365  0.30104385  0.26410128  1.0
  N  N91  1  0.87747161  0.91289844  0.82005787  1.0
  N  N92  1  0.87890512  0.68658270  0.94243216  1.0
  N  N93  1  0.89022014  0.54395612  0.60634564  1.0
  N  N94  1  0.90802800  0.45876266  0.06385216  1.0
  N  N95  1  0.90939305  0.21143270  0.27714935  1.0
  N  N96  1  0.93171018  0.22080190  0.82369520  1.0
  N  N97  1  0.96728924  0.12028182  0.05551324  1.0
  N  N98  1  0.97211712  0.46669727  0.98703551  1.0
  N  N99  1  0.99607767  0.80820895  0.54354808  1.0
