# generated using pymatgen
data_GaN
_symmetry_space_group_name_H-M   P1
_cell_length_a   11.69800562
_cell_length_b   11.94371371
_cell_length_c   11.82725790
_cell_angle_alpha   92.80950449
_cell_angle_beta   89.83856688
_cell_angle_gamma   89.90399466
_symmetry_Int_Tables_number   1
_chemical_formula_structural   GaN
_chemical_formula_sum   'Ga50 N50'
_cell_volume   1650.48092859
_cell_formula_units_Z   50
loop_
 _symmetry_equiv_pos_site_id
 _symmetry_equiv_pos_as_xyz
  1  'x, y, z'
loop_
 _atom_site_type_symbol
 _atom_site_label
 _atom_site_symmetry_multiplicity
 _atom_site_fract_x
 _atom_site_fract_y
 _atom_site_fract_z
 _atom_site_occupancy
  Ga  Ga0  1  0.00037989  0.02609709  0.51065183  1.0
  Ga  Ga1  1  0.04574360  0.27232630  0.38205055  1.0
  Ga  Ga2  1  0.07036327  0.67438595  0.71288839  1.0
  Ga  Ga3  1  0.11516080  0.32690998  0.11560519  1.0
  Ga  Ga4  1  0.11681003  0.84195575  0.27482861  1.0
  Ga  Ga5  1  0.11823485  0.56266164  0.17099109  1.0
  Ga  Ga6  1  0.12427482  0.68644952  0.41911834  1.0
  Ga  Ga7  1  0.12748845  0.04591554  0.09725316  1.0
  Ga  Ga8  1  0.17645456  0.88566065  0.84045387  1.0
  Ga  Ga9  1  0.18174602  0.01663651  0.60386925  1.0
  Ga  Ga10  1  0.23402016  0.12704059  0.36834966  1.0
  Ga  Ga11  1  0.24062331  0.43254108  0.96994422  1.0
  Ga  Ga12  1  0.25535121  0.44038425  0.32341619  1.0
  Ga  Ga13  1  0.25830606  0.29639253  0.54662267  1.0
  Ga  Ga14  1  0.26271193  0.57788245  0.63156346  1.0
  Ga  Ga15  1  0.26909289  0.68883650  0.11739469  1.0
  Ga  Ga16  1  0.29499034  0.21806373  0.11490719  1.0
  Ga  Ga17  1  0.29765962  0.71584575  0.88340853  1.0
  Ga  Ga18  1  0.32098250  0.95608123  0.00543148  1.0
  Ga  Ga19  1  0.32897782  0.22796145  0.88861146  1.0
  Ga  Ga20  1  0.33511129  0.79590245  0.61596786  1.0
  Ga  Ga21  1  0.34834143  0.71755758  0.33324109  1.0
  Ga  Ga22  1  0.38427018  0.39330793  0.76708742  1.0
  Ga  Ga23  1  0.40169172  0.00972167  0.78878031  1.0
  Ga  Ga24  1  0.41190814  0.92225001  0.40633364  1.0
  Ga  Ga25  1  0.41366441  0.09512875  0.24259575  1.0
  Ga  Ga26  1  0.43486490  0.08349079  0.58008294  1.0
  Ga  Ga27  1  0.46613929  0.52322929  0.24403877  1.0
  Ga  Ga28  1  0.46701073  0.57919919  0.04266736  1.0
  Ga  Ga29  1  0.48143247  0.84633820  0.14723035  1.0
  Ga  Ga30  1  0.48809904  0.58012375  0.79924873  1.0
  Ga  Ga31  1  0.51588084  0.29976612  0.24337387  1.0
  Ga  Ga32  1  0.56577077  0.12101166  0.41366871  1.0
  Ga  Ga33  1  0.59025697  0.06678216  0.03200931  1.0
  Ga  Ga34  1  0.64672244  0.73377184  0.28590741  1.0
  Ga  Ga35  1  0.67834935  0.05170865  0.22791304  1.0
  Ga  Ga36  1  0.68495323  0.72798873  0.98266454  1.0
  Ga  Ga37  1  0.71479026  0.96956773  0.86271119  1.0
  Ga  Ga38  1  0.72344349  0.26065279  0.35814660  1.0
  Ga  Ga39  1  0.72953155  0.46881081  0.31811529  1.0
  Ga  Ga40  1  0.75404283  0.03309969  0.47995459  1.0
  Ga  Ga41  1  0.83764276  0.78995790  0.38300871  1.0
  Ga  Ga42  1  0.84935665  0.08868657  0.74202256  1.0
  Ga  Ga43  1  0.85507067  0.93366448  0.05306532  1.0
  Ga  Ga44  1  0.87482425  0.25963790  0.50832121  1.0
  Ga  Ga45  1  0.91005817  0.21942999  0.15647263  1.0
  Ga  Ga46  1  0.93531123  0.80779191  0.83125400  1.0
  Ga  Ga47  1  0.94409803  0.02624509  0.28663786  1.0
  Ga  Ga48  1  0.94795952  0.07745123  0.92884523  1.0
  Ga  Ga49  1  0.95024418  0.47925486  0.32339657  1.0
  N  N50  1  0.00647026  0.71479270  0.54752153  1.0
  N  N51  1  0.01958000  0.41380308  0.68880537  1.0
  N  N52  1  0.02301020  0.93607313  0.16877301  1.0
  N  N53  1  0.02372475  0.51889327  0.91949137  1.0
  N  N54  1  0.02504882  0.94063308  0.85810285  1.0
  N  N55  1  0.02617786  0.17739475  0.04667714  1.0
  N  N56  1  0.06394514  0.10771625  0.37408077  1.0
  N  N57  1  0.09774038  0.15721793  0.75204975  1.0
  N  N58  1  0.11070397  0.53779491  0.33852864  1.0
  N  N59  1  0.15842735  0.21215950  0.80577257  1.0
  N  N60  1  0.21137079  0.30370937  0.39377339  1.0
  N  N61  1  0.26620409  0.92478674  0.70169681  1.0
  N  N62  1  0.26929605  0.87240951  0.32722665  1.0
  N  N63  1  0.27275316  0.68440224  0.50276266  1.0
  N  N64  1  0.27638213  0.13448789  0.53996217  1.0
  N  N65  1  0.29133584  0.41932749  0.63890671  1.0
  N  N66  1  0.30912114  0.57794655  0.97482002  1.0
  N  N67  1  0.35702748  0.79622828  0.03896657  1.0
  N  N68  1  0.37188315  0.67822401  0.73093970  1.0
  N  N69  1  0.45250502  0.00133478  0.10550944  1.0
  N  N70  1  0.49450750  0.80556885  0.30875970  1.0
  N  N71  1  0.49530490  0.33783868  0.02937367  1.0
  N  N72  1  0.52638805  0.46745296  0.55702865  1.0
  N  N73  1  0.54483978  0.29934061  0.95399335  1.0
  N  N74  1  0.55091602  0.69524921  0.53849001  1.0
  N  N75  1  0.56527436  0.63483017  0.93212210  1.0
  N  N76  1  0.58669600  0.89961379  0.65028077  1.0
  N  N77  1  0.59529103  0.41872725  0.51047361  1.0
  N  N78  1  0.61990188  0.57403955  0.28894711  1.0
  N  N79  1  0.64514363  0.68503114  0.52482494  1.0
  N  N80  1  0.65230328  0.81095248  0.13004704  1.0
  N  N81  1  0.66741266  0.31288567  0.71527210  1.0
  N  N82  1  0.67475513  0.92222321  0.61705107  1.0
  N  N83  1  0.69260157  0.23431918  0.75687566  1.0
  N  N84  1  0.71131587  0.58677955  0.72319658  1.0
  N  N85  1  0.72020169  0.91011616  0.14840177  1.0
  N  N86  1  0.75062268  0.37636809  0.99374023  1.0
  N  N87  1  0.77866087  0.32010833  0.06175007  1.0
  N  N88  1  0.79442026  0.82727266  0.91820830  1.0
  N  N89  1  0.79848316  0.55418166  0.70206109  1.0
  N  N90  1  0.79910764  0.60797303  0.03901421  1.0
  N  N91  1  0.82107542  0.13624134  0.25342265  1.0
  N  N92  1  0.86806426  0.11438998  0.58360091  1.0
  N  N93  1  0.87355611  0.61196715  0.10523042  1.0
  N  N94  1  0.88403970  0.94404849  0.41460476  1.0
  N  N95  1  0.90757386  0.74096603  0.53211557  1.0
  N  N96  1  0.94637763  0.61067132  0.17533979  1.0
  N  N97  1  0.94815107  0.46363352  0.90041746  1.0
  N  N98  1  0.95051080  0.35709988  0.65245058  1.0
  N  N99  1  0.99364571  0.33770641  0.23496301  1.0
