# generated using pymatgen
data_GaN
_symmetry_space_group_name_H-M   P1
_cell_length_a   10.83226973
_cell_length_b   11.39369178
_cell_length_c   11.66126335
_cell_angle_alpha   91.72013784
_cell_angle_beta   93.45426154
_cell_angle_gamma   89.49632427
_symmetry_Int_Tables_number   1
_chemical_formula_structural   GaN
_chemical_formula_sum   'Ga50 N50'
_cell_volume   1435.93048099
_cell_formula_units_Z   50
loop_
 _symmetry_equiv_pos_site_id
 _symmetry_equiv_pos_as_xyz
  1  'x, y, z'
loop_
 _atom_site_type_symbol
 _atom_site_label
 _atom_site_symmetry_multiplicity
 _atom_site_fract_x
 _atom_site_fract_y
 _atom_site_fract_z
 _atom_site_occupancy
  Ga  Ga0  1  0.00809937  0.65547330  0.17993286  1.0
  Ga  Ga1  1  0.00908857  0.54611467  0.42722404  1.0
  Ga  Ga2  1  0.01001087  0.15478974  0.29123198  1.0
  Ga  Ga3  1  0.03769346  0.06837516  0.56960059  1.0
  Ga  Ga4  1  0.07392408  0.64128948  0.70597227  1.0
  Ga  Ga5  1  0.12008085  0.81418549  0.04443006  1.0
  Ga  Ga6  1  0.15520386  0.82431954  0.55377724  1.0
  Ga  Ga7  1  0.15739503  0.87845110  0.33914574  1.0
  Ga  Ga8  1  0.17618415  0.60697341  0.91243091  1.0
  Ga  Ga9  1  0.21098710  0.36637190  0.37700891  1.0
  Ga  Ga10  1  0.26719747  0.42219556  0.12351470  1.0
  Ga  Ga11  1  0.27558793  0.05614560  0.62860230  1.0
  Ga  Ga12  1  0.28062659  0.65878322  0.28114793  1.0
  Ga  Ga13  1  0.30028315  0.12553384  0.37586239  1.0
  Ga  Ga14  1  0.30573500  0.63791663  0.52835477  1.0
  Ga  Ga15  1  0.30879758  0.18314853  0.09291832  1.0
  Ga  Ga16  1  0.34807241  0.82686903  0.81439783  1.0
  Ga  Ga17  1  0.35598296  0.36610771  0.87268313  1.0
  Ga  Ga18  1  0.35636183  0.26532410  0.62843325  1.0
  Ga  Ga19  1  0.37837633  0.12367538  0.88241743  1.0
  Ga  Ga20  1  0.39876726  0.93481560  0.38710613  1.0
  Ga  Ga21  1  0.39999253  0.77609897  0.09507514  1.0
  Ga  Ga22  1  0.45225634  0.87241680  0.58774275  1.0
  Ga  Ga23  1  0.47470979  0.35636215  0.26078557  1.0
  Ga  Ga24  1  0.48139498  0.48499423  0.49565508  1.0
  Ga  Ga25  1  0.50586537  0.66853303  0.32634886  1.0
  Ga  Ga26  1  0.54280718  0.34449415  0.03405997  1.0
  Ga  Ga27  1  0.57091870  0.60529226  0.90862184  1.0
  Ga  Ga28  1  0.58412661  0.97948332  0.17625888  1.0
  Ga  Ga29  1  0.59481039  0.31566822  0.63362085  1.0
  Ga  Ga30  1  0.60084996  0.16957198  0.42545951  1.0
  Ga  Ga31  1  0.62409002  0.78339130  0.71240854  1.0
  Ga  Ga32  1  0.62424883  0.12995634  0.93787618  1.0
  Ga  Ga33  1  0.63220127  0.03510718  0.71090072  1.0
  Ga  Ga34  1  0.63887601  0.83680265  0.96378159  1.0
  Ga  Ga35  1  0.67067439  0.33504616  0.83893216  1.0
  Ga  Ga36  1  0.67102903  0.91000933  0.42131440  1.0
  Ga  Ga37  1  0.69919384  0.49674782  0.24989231  1.0
  Ga  Ga38  1  0.70706178  0.68093004  0.13879462  1.0
  Ga  Ga39  1  0.75270676  0.43784560  0.49561776  1.0
  Ga  Ga40  1  0.75500173  0.21480866  0.18605747  1.0
  Ga  Ga41  1  0.77262867  0.62900009  0.63590965  1.0
  Ga  Ga42  1  0.80686885  0.70761605  0.38122135  1.0
  Ga  Ga43  1  0.82398683  0.93763426  0.91603824  1.0
  Ga  Ga44  1  0.83502515  0.18580067  0.56020938  1.0
  Ga  Ga45  1  0.85766350  0.41029752  0.71295475  1.0
  Ga  Ga46  1  0.87390733  0.84320441  0.62706530  1.0
  Ga  Ga47  1  0.88509363  0.63191222  0.91382089  1.0
  Ga  Ga48  1  0.88637584  0.90861335  0.19033084  1.0
  Ga  Ga49  1  0.97834965  0.09806414  0.07877221  1.0
  N  N50  1  0.00637563  0.39734308  0.54569140  1.0
  N  N51  1  0.03058658  0.65766092  0.00985820  1.0
  N  N52  1  0.03666589  0.80402627  0.66240414  1.0
  N  N53  1  0.05310823  0.00180253  0.82804340  1.0
  N  N54  1  0.06007221  0.52154668  0.27219522  1.0
  N  N55  1  0.08546856  0.33104501  0.52136627  1.0
  N  N56  1  0.09578268  0.21079318  0.93488803  1.0
  N  N57  1  0.09751043  0.27689673  0.86479113  1.0
  N  N58  1  0.11559631  0.92321152  0.82952479  1.0
  N  N59  1  0.12933833  0.60733310  0.54082095  1.0
  N  N60  1  0.15183248  0.76200624  0.21206020  1.0
  N  N61  1  0.17010367  0.21569783  0.31475472  1.0
  N  N62  1  0.19212965  0.50012573  0.26710549  1.0
  N  N63  1  0.24116070  0.45607084  0.96315333  1.0
  N  N64  1  0.27303503  0.77015792  0.96215403  1.0
  N  N65  1  0.31529569  0.77847911  0.64040782  1.0
  N  N66  1  0.33238094  0.94014495  0.16192653  1.0
  N  N67  1  0.33304991  0.50449326  0.73424585  1.0
  N  N68  1  0.34698078  0.99796665  0.77342069  1.0
  N  N69  1  0.37109998  0.34093376  0.46675268  1.0
  N  N70  1  0.40101759  0.02481235  0.14459820  1.0
  N  N71  1  0.42113613  0.55275190  0.71424647  1.0
  N  N72  1  0.43395728  0.50799068  0.08910737  1.0
  N  N73  1  0.43688958  0.25340924  0.39241136  1.0
  N  N74  1  0.46552773  0.60348854  0.06097392  1.0
  N  N75  1  0.52115354  0.76297170  0.84867874  1.0
  N  N76  1  0.54366308  0.49919575  0.34203588  1.0
  N  N77  1  0.54866996  0.44047071  0.89438938  1.0
  N  N78  1  0.56947218  0.01967788  0.34338422  1.0
  N  N79  1  0.57764656  0.81828836  0.11701639  1.0
  N  N80  1  0.63837142  0.34057429  0.18245265  1.0
  N  N81  1  0.63848808  0.75209936  0.39616241  1.0
  N  N82  1  0.65993747  0.15417164  0.58800949  1.0
  N  N83  1  0.72974411  0.66751638  0.97125374  1.0
  N  N84  1  0.75163303  0.03745344  0.15794848  1.0
  N  N85  1  0.77133398  0.91029162  0.74340895  1.0
  N  N86  1  0.78039449  0.25394048  0.41000141  1.0
  N  N87  1  0.78095289  0.10594573  0.05054502  1.0
  N  N88  1  0.82917103  0.53405787  0.38261471  1.0
  N  N89  1  0.84527074  0.14018373  0.82986172  1.0
  N  N90  1  0.85215521  0.89331737  0.45937084  1.0
  N  N91  1  0.85893477  0.74531257  0.22236383  1.0
  N  N92  1  0.85917760  0.24708934  0.31965392  1.0
  N  N93  1  0.88995925  0.41076930  0.03740699  1.0
  N  N94  1  0.90320847  0.57595106  0.75788445  1.0
  N  N95  1  0.90602966  0.18330220  0.76679347  1.0
  N  N96  1  0.94707887  0.96830796  0.43887573  1.0
  N  N97  1  0.97183669  0.37309579  0.08688686  1.0
  N  N98  1  0.97557434  0.92740106  0.04377543  1.0
  N  N99  1  0.99107079  0.97690655  0.32767648  1.0
