# generated using pymatgen
data_GaN
_symmetry_space_group_name_H-M   P1
_cell_length_a   11.10599998
_cell_length_b   12.40237779
_cell_length_c   12.27553278
_cell_angle_alpha   89.00671075
_cell_angle_beta   88.52177503
_cell_angle_gamma   96.91943246
_symmetry_Int_Tables_number   1
_chemical_formula_structural   GaN
_chemical_formula_sum   'Ga50 N50'
_cell_volume   1677.61193669
_cell_formula_units_Z   50
loop_
 _symmetry_equiv_pos_site_id
 _symmetry_equiv_pos_as_xyz
  1  'x, y, z'
loop_
 _atom_site_type_symbol
 _atom_site_label
 _atom_site_symmetry_multiplicity
 _atom_site_fract_x
 _atom_site_fract_y
 _atom_site_fract_z
 _atom_site_occupancy
  Ga  Ga0  1  0.05566323  0.21632991  0.38812088  1.0
  Ga  Ga1  1  0.05809465  0.70419062  0.84889087  1.0
  Ga  Ga2  1  0.06185750  0.56161881  0.30231553  1.0
  Ga  Ga3  1  0.09718526  0.07156617  0.04889740  1.0
  Ga  Ga4  1  0.09742948  0.68183360  0.50165616  1.0
  Ga  Ga5  1  0.12448290  0.38505339  0.19400858  1.0
  Ga  Ga6  1  0.15516566  0.88846309  0.88987689  1.0
  Ga  Ga7  1  0.16383131  0.64516270  0.09063213  1.0
  Ga  Ga8  1  0.19325103  0.81648519  0.18498249  1.0
  Ga  Ga9  1  0.20828369  0.27025844  0.95918541  1.0
  Ga  Ga10  1  0.22092049  0.37434118  0.41387945  1.0
  Ga  Ga11  1  0.22118443  0.59895799  0.82383339  1.0
  Ga  Ga12  1  0.24294043  0.03211093  0.31841452  1.0
  Ga  Ga13  1  0.29966747  0.59251063  0.35538372  1.0
  Ga  Ga14  1  0.30090662  0.44631261  0.03678963  1.0
  Ga  Ga15  1  0.30654946  0.90695785  0.67896099  1.0
  Ga  Ga16  1  0.30682124  0.44586385  0.59125702  1.0
  Ga  Ga17  1  0.30923818  0.71322289  0.58880452  1.0
  Ga  Ga18  1  0.32608902  0.13946156  0.09674269  1.0
  Ga  Ga19  1  0.37140841  0.43890589  0.24271092  1.0
  Ga  Ga20  1  0.37407022  0.29239237  0.79840603  1.0
  Ga  Ga21  1  0.37442488  0.20560880  0.54798305  1.0
  Ga  Ga22  1  0.40795090  0.09881374  0.78148313  1.0
  Ga  Ga23  1  0.41986367  0.25285549  0.34136186  1.0
  Ga  Ga24  1  0.43766890  0.84683782  0.38840160  1.0
  Ga  Ga25  1  0.44109152  0.66641649  0.00880368  1.0
  Ga  Ga26  1  0.44272388  0.92824227  0.17240007  1.0
  Ga  Ga27  1  0.44541356  0.92450625  0.94231767  1.0
  Ga  Ga28  1  0.46510198  0.56236962  0.77829504  1.0
  Ga  Ga29  1  0.50192343  0.33538103  0.08577873  1.0
  Ga  Ga30  1  0.51933707  0.00563500  0.52798567  1.0
  Ga  Ga31  1  0.58697859  0.14889140  0.02227452  1.0
  Ga  Ga32  1  0.60946439  0.83310963  0.84619868  1.0
  Ga  Ga33  1  0.61302640  0.78256143  0.13890622  1.0
  Ga  Ga34  1  0.62955869  0.07486264  0.82758420  1.0
  Ga  Ga35  1  0.65802637  0.25963141  0.30185855  1.0
  Ga  Ga36  1  0.66624675  0.61789511  0.93955465  1.0
  Ga  Ga37  1  0.68057712  0.51276634  0.15797245  1.0
  Ga  Ga38  1  0.71225491  0.97265011  0.29863777  1.0
  Ga  Ga39  1  0.75323982  0.06241048  0.60153111  1.0
  Ga  Ga40  1  0.82549862  0.20158009  0.45311343  1.0
  Ga  Ga41  1  0.84437504  0.70548462  0.83309055  1.0
  Ga  Ga42  1  0.86024705  0.97992181  0.86820248  1.0
  Ga  Ga43  1  0.87086154  0.17926361  0.18684523  1.0
  Ga  Ga44  1  0.88395208  0.14995267  0.98560766  1.0
  Ga  Ga45  1  0.88676537  0.39118574  0.31832923  1.0
  Ga  Ga46  1  0.93695894  0.79265602  0.32105453  1.0
  Ga  Ga47  1  0.93757022  0.00492261  0.46959281  1.0
  Ga  Ga48  1  0.95287012  0.82314885  0.05803414  1.0
  Ga  Ga49  1  0.99325414  0.00348808  0.23270584  1.0
  N  N50  1  0.00599369  0.67835202  0.01722341  1.0
  N  N51  1  0.01869999  0.94778599  0.95819777  1.0
  N  N52  1  0.03023827  0.85543061  0.19780838  1.0
  N  N53  1  0.03822334  0.87762661  0.59015157  1.0
  N  N54  1  0.04835530  0.12160925  0.68726969  1.0
  N  N55  1  0.05316050  0.19797035  0.97053875  1.0
  N  N56  1  0.07492224  0.43722843  0.84971016  1.0
  N  N57  1  0.08532214  0.05767433  0.37048851  1.0
  N  N58  1  0.08647841  0.20757481  0.70069005  1.0
  N  N59  1  0.09943399  0.90915668  0.65932106  1.0
  N  N60  1  0.27831508  0.59312492  0.98105332  1.0
  N  N61  1  0.30564543  0.89777345  0.27958336  1.0
  N  N62  1  0.31579358  0.95308164  0.83602790  1.0
  N  N63  1  0.32670718  0.57816074  0.68894263  1.0
  N  N64  1  0.34626014  0.14367474  0.25222971  1.0
  N  N65  1  0.36977645  0.32222987  0.64585055  1.0
  N  N66  1  0.37334302  0.70525666  0.44197498  1.0
  N  N67  1  0.38565632  0.05603144  0.62396879  1.0
  N  N68  1  0.44806187  0.03677267  0.05677534  1.0
  N  N69  1  0.46082049  0.81348528  0.06060922  1.0
  N  N70  1  0.46154989  0.42302486  0.85689250  1.0
  N  N71  1  0.47224983  0.44190339  0.96494568  1.0
  N  N72  1  0.52499801  0.79544914  0.61877529  1.0
  N  N73  1  0.53049203  0.67855827  0.86485068  1.0
  N  N74  1  0.56816776  0.87461997  0.26636499  1.0
  N  N75  1  0.57682891  0.52211390  0.41315936  1.0
  N  N76  1  0.58577527  0.86029603  0.66522603  1.0
  N  N77  1  0.59580978  0.63286091  0.08931553  1.0
  N  N78  1  0.63122619  0.53485150  0.66298853  1.0
  N  N79  1  0.64784783  0.56116705  0.35367860  1.0
  N  N80  1  0.68005724  0.48065639  0.61034185  1.0
  N  N81  1  0.69352282  0.30709401  0.76102199  1.0
  N  N82  1  0.73238911  0.74019028  0.49780939  1.0
  N  N83  1  0.75226464  0.12892107  0.30995576  1.0
  N  N84  1  0.75509452  0.41656265  0.99728062  1.0
  N  N85  1  0.77380992  0.05090766  0.75248727  1.0
  N  N86  1  0.77843442  0.83364994  0.86409392  1.0
  N  N87  1  0.78417538  0.86478545  0.10579579  1.0
  N  N88  1  0.78457227  0.29838246  0.72404753  1.0
  N  N89  1  0.78973070  0.72517882  0.56837116  1.0
  N  N90  1  0.79607278  0.33964084  0.97993635  1.0
  N  N91  1  0.80308244  0.95083770  0.15517571  1.0
  N  N92  1  0.84204232  0.62280196  0.12570174  1.0
  N  N93  1  0.85817248  0.91703625  0.35448865  1.0
  N  N94  1  0.91840163  0.59256176  0.06140661  1.0
  N  N95  1  0.95583529  0.49805391  0.60262651  1.0
  N  N96  1  0.97480946  0.41679003  0.83983478  1.0
  N  N97  1  0.98856175  0.41676685  0.59444590  1.0
  N  N98  1  0.99233275  0.67470291  0.38574008  1.0
  N  N99  1  0.99438751  0.28233273  0.24960830  1.0
