# generated using pymatgen
data_GaN
_symmetry_space_group_name_H-M   P1
_cell_length_a   11.34170599
_cell_length_b   11.57365976
_cell_length_c   11.73537533
_cell_angle_alpha   85.74618056
_cell_angle_beta   86.68693531
_cell_angle_gamma   86.70375329
_symmetry_Int_Tables_number   1
_chemical_formula_structural   GaN
_chemical_formula_sum   'Ga50 N50'
_cell_volume   1531.44138303
_cell_formula_units_Z   50
loop_
 _symmetry_equiv_pos_site_id
 _symmetry_equiv_pos_as_xyz
  1  'x, y, z'
loop_
 _atom_site_type_symbol
 _atom_site_label
 _atom_site_symmetry_multiplicity
 _atom_site_fract_x
 _atom_site_fract_y
 _atom_site_fract_z
 _atom_site_occupancy
  Ga  Ga0  1  0.08740927  0.45269772  0.89551810  1.0
  Ga  Ga1  1  0.09427553  0.15709147  0.93984314  1.0
  Ga  Ga2  1  0.10668001  0.79157595  0.20625926  1.0
  Ga  Ga3  1  0.14387219  0.28443042  0.41521403  1.0
  Ga  Ga4  1  0.16037293  0.64092798  0.93737956  1.0
  Ga  Ga5  1  0.17265434  0.88827961  0.98913029  1.0
  Ga  Ga6  1  0.18288306  0.33619521  0.70135062  1.0
  Ga  Ga7  1  0.18389328  0.74097863  0.52396510  1.0
  Ga  Ga8  1  0.21892442  0.94418872  0.29129104  1.0
  Ga  Ga9  1  0.24658196  0.79992347  0.71055935  1.0
  Ga  Ga10  1  0.27835524  0.55966193  0.45190275  1.0
  Ga  Ga11  1  0.30010067  0.11471942  0.40888381  1.0
  Ga  Ga12  1  0.31324503  0.50431198  0.71213393  1.0
  Ga  Ga13  1  0.32911676  0.29587576  0.91354472  1.0
  Ga  Ga14  1  0.33640924  0.65423621  0.15293600  1.0
  Ga  Ga15  1  0.33751075  0.21929601  0.59749845  1.0
  Ga  Ga16  1  0.35150046  0.00974906  0.87895994  1.0
  Ga  Ga17  1  0.36851227  0.43731832  0.27131285  1.0
  Ga  Ga18  1  0.41830765  0.72601380  0.86100226  1.0
  Ga  Ga19  1  0.44105665  0.92865499  0.19206399  1.0
  Ga  Ga20  1  0.45762651  0.03826130  0.69669883  1.0
  Ga  Ga21  1  0.50678417  0.65357573  0.57401408  1.0
  Ga  Ga22  1  0.51287593  0.18824885  0.39850991  1.0
  Ga  Ga23  1  0.51953831  0.52256026  0.04059101  1.0
  Ga  Ga24  1  0.52019346  0.67457808  0.35639911  1.0
  Ga  Ga25  1  0.53188721  0.40347771  0.50000820  1.0
  Ga  Ga26  1  0.53662542  0.84700647  0.64219843  1.0
  Ga  Ga27  1  0.54630052  0.28421250  0.79742365  1.0
  Ga  Ga28  1  0.62013945  0.00842881  0.29468516  1.0
  Ga  Ga29  1  0.63084468  0.49428864  0.77696061  1.0
  Ga  Ga30  1  0.63452351  0.70382570  0.17147350  1.0
  Ga  Ga31  1  0.64556486  0.42957200  0.28201089  1.0
  Ga  Ga32  1  0.68441012  0.14250612  0.92774095  1.0
  Ga  Ga33  1  0.69887914  0.94683127  0.06406402  1.0
  Ga  Ga34  1  0.70958376  0.92330729  0.48374336  1.0
  Ga  Ga35  1  0.71260544  0.58365516  0.46152414  1.0
  Ga  Ga36  1  0.71474434  0.67970836  0.91208034  1.0
  Ga  Ga37  1  0.75334112  0.73196769  0.61634619  1.0
  Ga  Ga38  1  0.81231822  0.39366004  0.88867440  1.0
  Ga  Ga39  1  0.81858213  0.50906935  0.07406077  1.0
  Ga  Ga40  1  0.84704021  0.84147915  0.31284334  1.0
  Ga  Ga41  1  0.86042856  0.32088401  0.48517366  1.0
  Ga  Ga42  1  0.89879992  0.58383126  0.26977564  1.0
  Ga  Ga43  1  0.91212582  0.64195910  0.80216451  1.0
  Ga  Ga44  1  0.91570236  0.76624851  0.05623767  1.0
  Ga  Ga45  1  0.92857698  0.03672859  0.12731258  1.0
  Ga  Ga46  1  0.96259521  0.89422964  0.84939941  1.0
  Ga  Ga47  1  0.96755082  0.38527034  0.66096647  1.0
  Ga  Ga48  1  0.97453843  0.80799046  0.52676029  1.0
  Ga  Ga49  1  0.98127860  0.07663582  0.35345608  1.0
  N  N50  1  0.00203373  0.91045389  0.03965393  1.0
  N  N51  1  0.00955179  0.55846015  0.43939451  1.0
  N  N52  1  0.07465579  0.05842676  0.60283339  1.0
  N  N53  1  0.08296895  0.49712305  0.20661102  1.0
  N  N54  1  0.10053830  0.44139424  0.13241125  1.0
  N  N55  1  0.10581110  0.01829009  0.68613039  1.0
  N  N56  1  0.14413194  0.20975704  0.14217007  1.0
  N  N57  1  0.15873289  0.29762679  0.87669897  1.0
  N  N58  1  0.20116256  0.72582189  0.07533145  1.0
  N  N59  1  0.21416156  0.04837003  0.97477091  1.0
  N  N60  1  0.22672323  0.22687811  0.18460465  1.0
  N  N61  1  0.23446889  0.41801957  0.38355685  1.0
  N  N62  1  0.26025834  0.87748559  0.44636324  1.0
  N  N63  1  0.28590948  0.85813696  0.85257331  1.0
  N  N64  1  0.29397832  0.63591083  0.80534427  1.0
  N  N65  1  0.31149185  0.95364923  0.50101257  1.0
  N  N66  1  0.34473819  0.93575276  0.60473479  1.0
  N  N67  1  0.37042145  0.49259671  0.10770976  1.0
  N  N68  1  0.37583986  0.61339722  0.31232844  1.0
  N  N69  1  0.41473578  0.51626821  0.56746371  1.0
  N  N70  1  0.44824214  0.93079037  0.01133519  1.0
  N  N71  1  0.45853334  0.82031550  0.00745315  1.0
  N  N72  1  0.47151870  0.76195148  0.11106026  1.0
  N  N73  1  0.50031859  0.25129640  0.11163894  1.0
  N  N74  1  0.50624215  0.35671157  0.33918958  1.0
  N  N75  1  0.51733596  0.19340119  0.65847378  1.0
  N  N76  1  0.55066002  0.24217452  0.55173544  1.0
  N  N77  1  0.55814170  0.61105664  0.89559172  1.0
  N  N78  1  0.57854416  0.18869603  0.12495507  1.0
  N  N79  1  0.65142931  0.52335836  0.13968116  1.0
  N  N80  1  0.66585273  0.59036186  0.63178929  1.0
  N  N81  1  0.67093823  0.94650586  0.81133308  1.0
  N  N82  1  0.71843177  0.42209809  0.43154735  1.0
  N  N83  1  0.73674102  0.77529626  0.04665699  1.0
  N  N84  1  0.74454531  0.87540760  0.81901004  1.0
  N  N85  1  0.76983519  0.27720131  0.22905100  1.0
  N  N86  1  0.77675594  0.96795997  0.20538126  1.0
  N  N87  1  0.79548212  0.72600975  0.43998467  1.0
  N  N88  1  0.80596447  0.12412683  0.61878791  1.0
  N  N89  1  0.81084424  0.10288665  0.71282119  1.0
  N  N90  1  0.83854068  0.22001644  0.94186895  1.0
  N  N91  1  0.84530531  0.27864138  0.16150554  1.0
  N  N92  1  0.89160172  0.94107576  0.43755155  1.0
  N  N93  1  0.90323602  0.74553162  0.66860177  1.0
  N  N94  1  0.92508735  0.15063286  0.98111948  1.0
  N  N95  1  0.94846371  0.73728233  0.22029174  1.0
  N  N96  1  0.94849136  0.47101155  0.80059625  1.0
  N  N97  1  0.98424823  0.23833185  0.40219221  1.0
  N  N98  1  0.99322928  0.52458303  0.53226953  1.0
  N  N99  1  0.99932634  0.72157094  0.90968003  1.0
