# generated using pymatgen
data_GaN
_symmetry_space_group_name_H-M   P1
_cell_length_a   11.08471226
_cell_length_b   11.43700619
_cell_length_c   11.63920881
_cell_angle_alpha   90.57212835
_cell_angle_beta   92.40740246
_cell_angle_gamma   90.15893541
_symmetry_Int_Tables_number   1
_chemical_formula_structural   GaN
_chemical_formula_sum   'Ga50 N50'
_cell_volume   1474.18808414
_cell_formula_units_Z   50
loop_
 _symmetry_equiv_pos_site_id
 _symmetry_equiv_pos_as_xyz
  1  'x, y, z'
loop_
 _atom_site_type_symbol
 _atom_site_label
 _atom_site_symmetry_multiplicity
 _atom_site_fract_x
 _atom_site_fract_y
 _atom_site_fract_z
 _atom_site_occupancy
  Ga  Ga0  1  0.06182218  0.54798609  0.70143941  1.0
  Ga  Ga1  1  0.06797846  0.79909170  0.60866863  1.0
  Ga  Ga2  1  0.11487828  0.83278339  0.84925110  1.0
  Ga  Ga3  1  0.11559243  0.38835750  0.96317323  1.0
  Ga  Ga4  1  0.11729077  0.70385710  0.29644919  1.0
  Ga  Ga5  1  0.12682292  0.08970711  0.52409222  1.0
  Ga  Ga6  1  0.13058760  0.40335039  0.44168551  1.0
  Ga  Ga7  1  0.14128707  0.93746631  0.22092416  1.0
  Ga  Ga8  1  0.15891762  0.22118898  0.80800408  1.0
  Ga  Ga9  1  0.18947151  0.01605836  0.96487180  1.0
  Ga  Ga10  1  0.19664705  0.19154659  0.18693004  1.0
  Ga  Ga11  1  0.24941265  0.46809103  0.18622237  1.0
  Ga  Ga12  1  0.26337096  0.32613386  0.65453604  1.0
  Ga  Ga13  1  0.27312879  0.00534045  0.68437269  1.0
  Ga  Ga14  1  0.32095814  0.61338239  0.38409417  1.0
  Ga  Ga15  1  0.32561493  0.56734128  0.59124251  1.0
  Ga  Ga16  1  0.34554566  0.19092843  0.37255913  1.0
  Ga  Ga17  1  0.36309314  0.50077376  0.84506502  1.0
  Ga  Ga18  1  0.36868667  0.78513036  0.73823771  1.0
  Ga  Ga19  1  0.43160676  0.18501805  0.59992999  1.0
  Ga  Ga20  1  0.43427260  0.13139369  0.09883199  1.0
  Ga  Ga21  1  0.44896041  0.07108434  0.85579699  1.0
  Ga  Ga22  1  0.46335015  0.41214458  0.48852670  1.0
  Ga  Ga23  1  0.48535912  0.36861507  0.24334164  1.0
  Ga  Ga24  1  0.51377487  0.32902786  0.85867585  1.0
  Ga  Ga25  1  0.57882228  0.94626320  0.63677637  1.0
  Ga  Ga26  1  0.58720426  0.57705845  0.71066859  1.0
  Ga  Ga27  1  0.63379513  0.20014554  0.36981927  1.0
  Ga  Ga28  1  0.66192338  0.47599263  0.02674756  1.0
  Ga  Ga29  1  0.68732640  0.06407745  0.00504496  1.0
  Ga  Ga30  1  0.69294369  0.14892319  0.73342887  1.0
  Ga  Ga31  1  0.72617769  0.47259157  0.31066592  1.0
  Ga  Ga32  1  0.72763206  0.80651011  0.54306781  1.0
  Ga  Ga33  1  0.74889697  0.24986758  0.12618152  1.0
  Ga  Ga34  1  0.76265937  0.39874066  0.54302355  1.0
  Ga  Ga35  1  0.79555395  0.40143521  0.79229884  1.0
  Ga  Ga36  1  0.79583318  0.73922145  0.10726900  1.0
  Ga  Ga37  1  0.81889583  0.85349820  0.84922196  1.0
  Ga  Ga38  1  0.82821186  0.01911135  0.21374226  1.0
  Ga  Ga39  1  0.83715317  0.65676224  0.66685297  1.0
  Ga  Ga40  1  0.89530719  0.96384809  0.41430470  1.0
  Ga  Ga41  1  0.91788750  0.10498461  0.83529210  1.0
  Ga  Ga42  1  0.92734575  0.27570003  0.34216013  1.0
  Ga  Ga43  1  0.93991726  0.99023526  0.65892557  1.0
  Ga  Ga44  1  0.94738348  0.23419495  0.62157457  1.0
  Ga  Ga45  1  0.95384631  0.40808353  0.17231692  1.0
  Ga  Ga46  1  0.95759004  0.60660105  0.42218345  1.0
  Ga  Ga47  1  0.96431622  0.22392717  0.04308535  1.0
  Ga  Ga48  1  0.97621274  0.62245974  0.94076522  1.0
  Ga  Ga49  1  0.97843036  0.93030922  0.06163331  1.0
  N  N50  1  0.01656055  0.55487260  0.10893871  1.0
  N  N51  1  0.01667601  0.07979168  0.97278933  1.0
  N  N52  1  0.03040260  0.93796113  0.52307939  1.0
  N  N53  1  0.03574963  0.13216626  0.37400214  1.0
  N  N54  1  0.08974413  0.10085917  0.28004186  1.0
  N  N55  1  0.11966520  0.58989003  0.16473311  1.0
  N  N56  1  0.13131051  0.61495113  0.85100208  1.0
  N  N57  1  0.16549493  0.33696866  0.11879751  1.0
  N  N58  1  0.18126575  0.46631852  0.61424374  1.0
  N  N59  1  0.20507164  0.52755803  0.89943636  1.0
  N  N60  1  0.21037680  0.84095308  0.70259496  1.0
  N  N61  1  0.26329504  0.73532626  0.05707573  1.0
  N  N62  1  0.26851253  0.09073346  0.83752457  1.0
  N  N63  1  0.26907375  0.05700899  0.11229894  1.0
  N  N64  1  0.30057151  0.79019084  0.13154637  1.0
  N  N65  1  0.32261524  0.94487828  0.37121770  1.0
  N  N66  1  0.35062845  0.88890844  0.44718180  1.0
  N  N67  1  0.35944931  0.44823670  0.32778939  1.0
  N  N68  1  0.40855864  0.62642071  0.73404774  1.0
  N  N69  1  0.44259544  0.93774734  0.73509717  1.0
  N  N70  1  0.44940503  0.29035568  0.01711658  1.0
  N  N71  1  0.45592328  0.81409182  0.94167026  1.0
  N  N72  1  0.46457583  0.38679273  0.07529936  1.0
  N  N73  1  0.48523088  0.19509265  0.26267765  1.0
  N  N74  1  0.48841100  0.59558911  0.16455620  1.0
  N  N75  1  0.51694208  0.68607652  0.41949995  1.0
  N  N76  1  0.51797373  0.68944988  0.16466900  1.0
  N  N77  1  0.52572988  0.19045863  0.75508642  1.0
  N  N78  1  0.54303935  0.83637205  0.98781128  1.0
  N  N79  1  0.55349664  0.72999351  0.50373168  1.0
  N  N80  1  0.58805139  0.90938070  0.25066349  1.0
  N  N81  1  0.60238689  0.94138708  0.34164023  1.0
  N  N82  1  0.61845777  0.37277980  0.41201989  1.0
  N  N83  1  0.66339124  0.65127955  0.87285992  1.0
  N  N84  1  0.67452801  0.37688952  0.89856004  1.0
  N  N85  1  0.69029303  0.73861851  0.80746258  1.0
  N  N86  1  0.69588522  0.65006489  0.33746515  1.0
  N  N87  1  0.70138957  0.63310957  0.97830531  1.0
  N  N88  1  0.70388464  0.09720101  0.56154053  1.0
  N  N89  1  0.75561866  0.42166667  0.15750887  1.0
  N  N90  1  0.75677511  0.02108007  0.85139020  1.0
  N  N91  1  0.76773860  0.69521556  0.40358388  1.0
  N  N92  1  0.77875647  0.17842255  0.28403900  1.0
  N  N93  1  0.80474357  0.04442432  0.54421900  1.0
  N  N94  1  0.84267736  0.24135587  0.75792176  1.0
  N  N95  1  0.86233065  0.45906296  0.41901255  1.0
  N  N96  1  0.89984419  0.53764102  0.78050678  1.0
  N  N97  1  0.91042000  0.79020245  0.98301272  1.0
  N  N98  1  0.95792016  0.84222030  0.74907450  1.0
  N  N99  1  0.99500926  0.65160653  0.58182567  1.0
