# generated using pymatgen
data_GaN
_symmetry_space_group_name_H-M   P1
_cell_length_a   11.01424840
_cell_length_b   11.20846526
_cell_length_c   12.10135783
_cell_angle_alpha   86.73554445
_cell_angle_beta   89.34656707
_cell_angle_gamma   87.44554382
_symmetry_Int_Tables_number   1
_chemical_formula_structural   GaN
_chemical_formula_sum   'Ga50 N50'
_cell_volume   1489.98159888
_cell_formula_units_Z   50
loop_
 _symmetry_equiv_pos_site_id
 _symmetry_equiv_pos_as_xyz
  1  'x, y, z'
loop_
 _atom_site_type_symbol
 _atom_site_label
 _atom_site_symmetry_multiplicity
 _atom_site_fract_x
 _atom_site_fract_y
 _atom_site_fract_z
 _atom_site_occupancy
  Ga  Ga0  1  0.00869219  0.57575738  0.94864693  1.0
  Ga  Ga1  1  0.01104174  0.13005482  0.63956514  1.0
  Ga  Ga2  1  0.03006617  0.16216862  0.18611121  1.0
  Ga  Ga3  1  0.06316183  0.04649260  0.94763495  1.0
  Ga  Ga4  1  0.06347885  0.49291794  0.54524647  1.0
  Ga  Ga5  1  0.06685078  0.83394032  0.06780548  1.0
  Ga  Ga6  1  0.09744441  0.80513814  0.56066400  1.0
  Ga  Ga7  1  0.11725411  0.86043263  0.80551629  1.0
  Ga  Ga8  1  0.13204307  0.41480163  0.19911441  1.0
  Ga  Ga9  1  0.14806009  0.04619352  0.42571481  1.0
  Ga  Ga10  1  0.21000915  0.30873301  0.02935202  1.0
  Ga  Ga11  1  0.21201312  0.35051225  0.68024302  1.0
  Ga  Ga12  1  0.21680771  0.27220249  0.46851590  1.0
  Ga  Ga13  1  0.21752164  0.12344225  0.78433086  1.0
  Ga  Ga14  1  0.21833017  0.80846010  0.31178829  1.0
  Ga  Ga15  1  0.22051218  0.57282490  0.32428282  1.0
  Ga  Ga16  1  0.27428635  0.44411941  0.85560166  1.0
  Ga  Ga17  1  0.30260955  0.03530218  0.58053579  1.0
  Ga  Ga18  1  0.31482585  0.59732753  0.63304626  1.0
  Ga  Ga19  1  0.36529062  0.47002711  0.46831656  1.0
  Ga  Ga20  1  0.37847575  0.81761013  0.68606118  1.0
  Ga  Ga21  1  0.39356331  0.24447238  0.32715540  1.0
  Ga  Ga22  1  0.41860375  0.68209319  0.85143010  1.0
  Ga  Ga23  1  0.42665031  0.22896553  0.04577104  1.0
  Ga  Ga24  1  0.45624336  0.06766275  0.78768676  1.0
  Ga  Ga25  1  0.46825936  0.28686068  0.60970540  1.0
  Ga  Ga26  1  0.54937709  0.46086484  0.71728218  1.0
  Ga  Ga27  1  0.60241144  0.25912863  0.89086263  1.0
  Ga  Ga28  1  0.60673773  0.81301829  0.99131176  1.0
  Ga  Ga29  1  0.63619212  0.15178372  0.17656697  1.0
  Ga  Ga30  1  0.63711615  0.94356345  0.64784277  1.0
  Ga  Ga31  1  0.64892862  0.55212815  0.97327502  1.0
  Ga  Ga32  1  0.66666667  0.32431812  0.40528959  1.0
  Ga  Ga33  1  0.72307057  0.20588398  0.62699048  1.0
  Ga  Ga34  1  0.74277325  0.73575186  0.62506725  1.0
  Ga  Ga35  1  0.75154359  0.50621210  0.57625142  1.0
  Ga  Ga36  1  0.77966898  0.57804202  0.31070985  1.0
  Ga  Ga37  1  0.79462947  0.00293169  0.09632823  1.0
  Ga  Ga38  1  0.80071477  0.48078545  0.80950176  1.0
  Ga  Ga39  1  0.80758291  0.16100982  0.86552557  1.0
  Ga  Ga40  1  0.82064504  0.36125905  0.16343824  1.0
  Ga  Ga41  1  0.83352557  0.11303174  0.35536984  1.0
  Ga  Ga42  1  0.84395566  0.86617687  0.89793485  1.0
  Ga  Ga43  1  0.85070624  0.67413500  0.11113172  1.0
  Ga  Ga44  1  0.87310932  0.96333585  0.60188948  1.0
  Ga  Ga45  1  0.92368127  0.30136154  0.99565019  1.0
  Ga  Ga46  1  0.96015928  0.34361822  0.41170085  1.0
  Ga  Ga47  1  0.98341969  0.66005223  0.71194779  1.0
  Ga  Ga48  1  0.99023952  0.35358085  0.73666155  1.0
  Ga  Ga49  1  0.99042640  0.87390117  0.27214125  1.0
  N  N50  1  0.03599233  0.60349462  0.37620462  1.0
  N  N51  1  0.05517968  0.19637942  0.48195220  1.0
  N  N52  1  0.07198672  0.19726678  0.02804829  1.0
  N  N53  1  0.09394447  0.88389680  0.41540506  1.0
  N  N54  1  0.13259280  0.63446528  0.61256049  1.0
  N  N55  1  0.16832941  0.06050012  0.25733399  1.0
  N  N56  1  0.17833312  0.60321687  0.88194100  1.0
  N  N57  1  0.19867832  0.96690180  0.20936196  1.0
  N  N58  1  0.21252421  0.88935628  0.65911046  1.0
  N  N59  1  0.22836333  0.70162456  0.87917317  1.0
  N  N60  1  0.24502468  0.71617323  0.09108467  1.0
  N  N61  1  0.26198974  0.61581036  0.10263343  1.0
  N  N62  1  0.30457939  0.21452616  0.61072815  1.0
  N  N63  1  0.33827671  0.92068746  0.97653073  1.0
  N  N64  1  0.35881263  0.98582118  0.03969783  1.0
  N  N65  1  0.39487219  0.87906824  0.40577477  1.0
  N  N66  1  0.40079088  0.53457498  0.77855046  1.0
  N  N67  1  0.45546910  0.83208089  0.47104885  1.0
  N  N68  1  0.45794148  0.96817001  0.65474310  1.0
  N  N69  1  0.46906884  0.19311278  0.19555449  1.0
  N  N70  1  0.46915876  0.51126184  0.20954224  1.0
  N  N71  1  0.47799736  0.46444434  0.13088274  1.0
  N  N72  1  0.49216086  0.32989154  0.43886432  1.0
  N  N73  1  0.50859661  0.61627266  0.42268014  1.0
  N  N74  1  0.51496567  0.78081346  0.23462071  1.0
  N  N75  1  0.52378858  0.67550089  0.97378113  1.0
  N  N76  1  0.52394009  0.85216801  0.16736244  1.0
  N  N77  1  0.56021250  0.06905125  0.43815677  1.0
  N  N78  1  0.56319878  0.20135557  0.73478472  1.0
  N  N79  1  0.58169330  0.94323886  0.87532482  1.0
  N  N80  1  0.61071578  0.62651219  0.42315680  1.0
  N  N81  1  0.62931578  0.04976027  0.37055296  1.0
  N  N82  1  0.64204304  0.43013548  0.85959915  1.0
  N  N83  1  0.67651219  0.92662796  0.81244743  1.0
  N  N84  1  0.72750953  0.25626465  0.26790223  1.0
  N  N85  1  0.73658892  0.84196473  0.41209591  1.0
  N  N86  1  0.75631273  0.52677750  0.10243092  1.0
  N  N87  1  0.76213303  0.81713659  0.32558873  1.0
  N  N88  1  0.76576178  0.82881989  0.04987172  1.0
  N  N89  1  0.76976210  0.64782984  0.84011326  1.0
  N  N90  1  0.79411606  0.43919467  0.42657761  1.0
  N  N91  1  0.87522782  0.22133367  0.72026255  1.0
  N  N92  1  0.87935096  0.69261152  0.86029302  1.0
  N  N93  1  0.88374380  0.02504887  0.94696200  1.0
  N  N94  1  0.90468790  0.50690341  0.66492533  1.0
  N  N95  1  0.90973664  0.03229704  0.22193252  1.0
  N  N96  1  0.91609987  0.79473490  0.61439787  1.0
  N  N97  1  0.95042103  0.66778219  0.35264889  1.0
  N  N98  1  0.95375081  0.42453691  0.88320149  1.0
  N  N99  1  0.98635444  0.32529736  0.25084485  1.0
