# generated using pymatgen
data_GaN
_symmetry_space_group_name_H-M   P1
_cell_length_a   11.22902952
_cell_length_b   11.75566865
_cell_length_c   11.64669980
_cell_angle_alpha   89.49012122
_cell_angle_beta   86.26621973
_cell_angle_gamma   84.97946051
_symmetry_Int_Tables_number   1
_chemical_formula_structural   GaN
_chemical_formula_sum   'Ga50 N50'
_cell_volume   1528.26249075
_cell_formula_units_Z   50
loop_
 _symmetry_equiv_pos_site_id
 _symmetry_equiv_pos_as_xyz
  1  'x, y, z'
loop_
 _atom_site_type_symbol
 _atom_site_label
 _atom_site_symmetry_multiplicity
 _atom_site_fract_x
 _atom_site_fract_y
 _atom_site_fract_z
 _atom_site_occupancy
  Ga  Ga0  1  0.03168566  0.50648198  0.47310864  1.0
  Ga  Ga1  1  0.03315673  0.82707810  0.65964335  1.0
  Ga  Ga2  1  0.10064061  0.09206192  0.64746876  1.0
  Ga  Ga3  1  0.10429790  0.92961011  0.87302066  1.0
  Ga  Ga4  1  0.10611791  0.14515255  0.94838271  1.0
  Ga  Ga5  1  0.10665912  0.58245569  0.14513525  1.0
  Ga  Ga6  1  0.10827022  0.37614499  0.24597542  1.0
  Ga  Ga7  1  0.17486540  0.38954126  0.01941454  1.0
  Ga  Ga8  1  0.17774413  0.66504424  0.52815199  1.0
  Ga  Ga9  1  0.21308219  0.62973363  0.86409273  1.0
  Ga  Ga10  1  0.25916846  0.27664163  0.49628911  1.0
  Ga  Ga11  1  0.26128021  0.97913168  0.52341898  1.0
  Ga  Ga12  1  0.28552557  0.26254710  0.72145604  1.0
  Ga  Ga13  1  0.29256514  0.82043579  0.69421741  1.0
  Ga  Ga14  1  0.32514679  0.48090893  0.72465749  1.0
  Ga  Ga15  1  0.32547362  0.44101925  0.33059172  1.0
  Ga  Ga16  1  0.33821525  0.05670240  0.32953011  1.0
  Ga  Ga17  1  0.34652741  0.94540318  0.05158672  1.0
  Ga  Ga18  1  0.38034457  0.73534397  0.03652646  1.0
  Ga  Ga19  1  0.38167679  0.30852250  0.16626043  1.0
  Ga  Ga20  1  0.40348914  0.20571247  0.91077638  1.0
  Ga  Ga21  1  0.41900024  0.95747462  0.77017637  1.0
  Ga  Ga22  1  0.44782877  0.74738322  0.44349649  1.0
  Ga  Ga23  1  0.45463789  0.09147597  0.53792986  1.0
  Ga  Ga24  1  0.46611351  0.49040675  0.47088850  1.0
  Ga  Ga25  1  0.46998084  0.65531091  0.77226159  1.0
  Ga  Ga26  1  0.50841542  0.86032542  0.23550654  1.0
  Ga  Ga27  1  0.55480591  0.59528884  0.23205630  1.0
  Ga  Ga28  1  0.56198129  0.21824643  0.33818570  1.0
  Ga  Ga29  1  0.56345224  0.17061845  0.72853103  1.0
  Ga  Ga30  1  0.57365591  0.37746723  0.62158121  1.0
  Ga  Ga31  1  0.61598392  0.77313316  0.96046418  1.0
  Ga  Ga32  1  0.61739250  0.95596177  0.38980251  1.0
  Ga  Ga33  1  0.63852533  0.39458601  0.15765500  1.0
  Ga  Ga34  1  0.64240833  0.48917875  0.82500168  1.0
  Ga  Ga35  1  0.65081959  0.15466035  0.06712342  1.0
  Ga  Ga36  1  0.67826061  0.96912521  0.86546551  1.0
  Ga  Ga37  1  0.70620543  0.11295316  0.53134282  1.0
  Ga  Ga38  1  0.71328303  0.30345448  0.89479397  1.0
  Ga  Ga39  1  0.72938652  0.60803517  0.47677754  1.0
  Ga  Ga40  1  0.74166480  0.68787790  0.68731107  1.0
  Ga  Ga41  1  0.78828245  0.26708362  0.64743973  1.0
  Ga  Ga42  1  0.83396447  0.82499514  0.50515179  1.0
  Ga  Ga43  1  0.84649409  0.33112007  0.39277584  1.0
  Ga  Ga44  1  0.85542671  0.08241400  0.32909879  1.0
  Ga  Ga45  1  0.86277738  0.05066286  0.10610433  1.0
  Ga  Ga46  1  0.87461637  0.05522233  0.83170892  1.0
  Ga  Ga47  1  0.87706194  0.53044140  0.24879032  1.0
  Ga  Ga48  1  0.91076688  0.31270086  0.09445032  1.0
  Ga  Ga49  1  0.99562011  0.29744749  0.81868393  1.0
  N  N50  1  0.01163914  0.97950151  0.73517130  1.0
  N  N51  1  0.01789629  0.45330416  0.73550789  1.0
  N  N52  1  0.04038091  0.30011241  0.98006284  1.0
  N  N53  1  0.04941058  0.70463181  0.36290189  1.0
  N  N54  1  0.08166606  0.86780893  0.17017893  1.0
  N  N55  1  0.10993731  0.11285794  0.17859436  1.0
  N  N56  1  0.13224238  0.19755951  0.77080455  1.0
  N  N57  1  0.14136733  0.54879718  0.98543025  1.0
  N  N58  1  0.15391818  0.78043311  0.80097323  1.0
  N  N59  1  0.16234317  0.87089253  0.22106869  1.0
  N  N60  1  0.16235062  0.39483669  0.40071054  1.0
  N  N61  1  0.16422644  0.16245631  0.23636427  1.0
  N  N62  1  0.22725746  0.02230230  0.94869605  1.0
  N  N63  1  0.28908140  0.63765956  0.16401029  1.0
  N  N64  1  0.31106245  0.28425603  0.02956866  1.0
  N  N65  1  0.33861531  0.59262643  0.58188415  1.0
  N  N66  1  0.35113173  0.04221077  0.90476735  1.0
  N  N67  1  0.35350898  0.58628877  0.23169115  1.0
  N  N68  1  0.39443091  0.69033378  0.61644212  1.0
  N  N69  1  0.40098968  0.19507234  0.39976592  1.0
  N  N70  1  0.41027183  0.99265652  0.18859495  1.0
  N  N71  1  0.42489998  0.50715126  0.99557304  1.0
  N  N72  1  0.49930400  0.48492022  0.74288439  1.0
  N  N73  1  0.51979305  0.47091961  0.01150083  1.0
  N  N74  1  0.53993903  0.72941324  0.12238595  1.0
  N  N75  1  0.54818936  0.25443663  0.17800478  1.0
  N  N76  1  0.56938392  0.61111009  0.40199707  1.0
  N  N77  1  0.57230929  0.00635972  0.74911934  1.0
  N  N78  1  0.57275050  0.84482840  0.53304180  1.0
  N  N79  1  0.58273516  0.19965777  0.90873073  1.0
  N  N80  1  0.60067373  0.82005388  0.62593963  1.0
  N  N81  1  0.63434355  0.65775247  0.83004051  1.0
  N  N82  1  0.72489316  0.21640251  0.38323965  1.0
  N  N83  1  0.75432338  0.30275035  0.05542320  1.0
  N  N84  1  0.77683524  0.97527643  0.44063904  1.0
  N  N85  1  0.81186696  0.82965423  0.20142093  1.0
  N  N86  1  0.81397537  0.75067629  0.14762663  1.0
  N  N87  1  0.84944609  0.22965759  0.79898286  1.0
  N  N88  1  0.85126444  0.54230832  0.92686618  1.0
  N  N89  1  0.86453556  0.49837942  0.42462501  1.0
  N  N90  1  0.87663973  0.79849101  0.92876537  1.0
  N  N91  1  0.89169883  0.50680841  0.00665897  1.0
  N  N92  1  0.91126367  0.74067020  0.85547948  1.0
  N  N93  1  0.92799498  0.26733649  0.52812215  1.0
  N  N94  1  0.93783114  0.35143864  0.24452186  1.0
  N  N95  1  0.96385595  0.50740020  0.67082728  1.0
  N  N96  1  0.97446102  0.03867530  0.96920970  1.0
  N  N97  1  0.97704054  0.77929054  0.37833589  1.0
  N  N98  1  0.98737857  0.16194422  0.51793539  1.0
  N  N99  1  0.98920834  0.09437501  0.43521180  1.0
