# generated using pymatgen
data_GaN
_symmetry_space_group_name_H-M   P1
_cell_length_a   11.24382238
_cell_length_b   11.57282338
_cell_length_c   11.45986326
_cell_angle_alpha   92.87050886
_cell_angle_beta   93.73047987
_cell_angle_gamma   90.31859258
_symmetry_Int_Tables_number   1
_chemical_formula_structural   GaN
_chemical_formula_sum   'Ga50 N50'
_cell_volume   1486.10428362
_cell_formula_units_Z   50
loop_
 _symmetry_equiv_pos_site_id
 _symmetry_equiv_pos_as_xyz
  1  'x, y, z'
loop_
 _atom_site_type_symbol
 _atom_site_label
 _atom_site_symmetry_multiplicity
 _atom_site_fract_x
 _atom_site_fract_y
 _atom_site_fract_z
 _atom_site_occupancy
  Ga  Ga0  1  0.00673912  0.96077232  0.55749623  1.0
  Ga  Ga1  1  0.00802920  0.66540194  0.00662613  1.0
  Ga  Ga2  1  0.02817256  0.37892419  0.02520058  1.0
  Ga  Ga3  1  0.03511645  0.73555599  0.21580061  1.0
  Ga  Ga4  1  0.05681355  0.02900301  0.84950308  1.0
  Ga  Ga5  1  0.06818668  0.76816420  0.77903593  1.0
  Ga  Ga6  1  0.08351620  0.27021939  0.29046615  1.0
  Ga  Ga7  1  0.15744030  0.94770525  0.06664689  1.0
  Ga  Ga8  1  0.15860248  0.73021361  0.51934080  1.0
  Ga  Ga9  1  0.17972949  0.22166840  0.98433460  1.0
  Ga  Ga10  1  0.18616342  0.14849535  0.67566697  1.0
  Ga  Ga11  1  0.21819676  0.54246469  0.88417403  1.0
  Ga  Ga12  1  0.22752848  0.99343349  0.41336020  1.0
  Ga  Ga13  1  0.23395005  0.69898875  0.31478087  1.0
  Ga  Ga14  1  0.24039447  0.43818965  0.24643216  1.0
  Ga  Ga15  1  0.25410291  0.89424980  0.67452820  1.0
  Ga  Ga16  1  0.28239037  0.66203947  0.08712313  1.0
  Ga  Ga17  1  0.28403407  0.50200968  0.52872423  1.0
  Ga  Ga18  1  0.30229853  0.64501529  0.70713499  1.0
  Ga  Ga19  1  0.31654746  0.13202620  0.23240570  1.0
  Ga  Ga20  1  0.35360174  0.07254945  0.92052750  1.0
  Ga  Ga21  1  0.36054098  0.38720767  0.00272501  1.0
  Ga  Ga22  1  0.36128632  0.30538293  0.46042969  1.0
  Ga  Ga23  1  0.40531608  0.86126478  0.34169868  1.0
  Ga  Ga24  1  0.45338868  0.08623520  0.62347015  1.0
  Ga  Ga25  1  0.48419897  0.57700233  0.22486786  1.0
  Ga  Ga26  1  0.50743467  0.73525088  0.73189276  1.0
  Ga  Ga27  1  0.52056393  0.21325920  0.07838729  1.0
  Ga  Ga28  1  0.52780461  0.33333333  0.29900724  1.0
  Ga  Ga29  1  0.55408217  0.94435905  0.76073503  1.0
  Ga  Ga30  1  0.55508597  0.25371621  0.81210389  1.0
  Ga  Ga31  1  0.56252595  0.09887613  0.37495873  1.0
  Ga  Ga32  1  0.63649265  0.89024623  0.54520188  1.0
  Ga  Ga33  1  0.64245853  0.39338232  0.05271091  1.0
  Ga  Ga34  1  0.66171327  0.24295128  0.56886110  1.0
  Ga  Ga35  1  0.69158215  0.05511005  0.96956628  1.0
  Ga  Ga36  1  0.69711075  0.51159519  0.81967964  1.0
  Ga  Ga37  1  0.69753595  0.50012146  0.28501752  1.0
  Ga  Ga38  1  0.73369696  0.69369197  0.59913272  1.0
  Ga  Ga39  1  0.78001033  0.79274137  0.85605053  1.0
  Ga  Ga40  1  0.79127879  0.05708039  0.71692804  1.0
  Ga  Ga41  1  0.80236994  0.28115503  0.30904603  1.0
  Ga  Ga42  1  0.81353926  0.20657133  0.09219727  1.0
  Ga  Ga43  1  0.82569203  0.04279182  0.42718494  1.0
  Ga  Ga44  1  0.86085687  0.28076299  0.81125419  1.0
  Ga  Ga45  1  0.91715084  0.74379549  0.45024222  1.0
  Ga  Ga46  1  0.92044202  0.53489385  0.80036982  1.0
  Ga  Ga47  1  0.92794728  0.93249095  0.26070958  1.0
  Ga  Ga48  1  0.97297654  0.31940922  0.57572975  1.0
  Ga  Ga49  1  0.98875858  0.48497010  0.32206128  1.0
  N  N50  1  0.00938226  0.14615136  0.63701002  1.0
  N  N51  1  0.04816321  0.11695954  0.21260743  1.0
  N  N52  1  0.04823909  0.64606552  0.63826698  1.0
  N  N53  1  0.04978352  0.51287320  0.92579012  1.0
  N  N54  1  0.06961381  0.40859794  0.19281164  1.0
  N  N55  1  0.07989979  0.91414487  0.70902844  1.0
  N  N56  1  0.20974809  0.13063701  0.83897135  1.0
  N  N57  1  0.22690115  0.54544396  0.37886998  1.0
  N  N58  1  0.23297814  0.85423442  0.91273347  1.0
  N  N59  1  0.25770898  0.27495378  0.31310441  1.0
  N  N60  1  0.26824355  0.09571981  0.06842565  1.0
  N  N61  1  0.27359231  0.31368411  0.68714210  1.0
  N  N62  1  0.28630116  0.03953266  0.58978758  1.0
  N  N63  1  0.30349383  0.90694627  0.85781493  1.0
  N  N64  1  0.34865222  0.49591301  0.13929609  1.0
  N  N65  1  0.35586313  0.34119632  0.74919446  1.0
  N  N66  1  0.38983674  0.72029645  0.23353743  1.0
  N  N67  1  0.45457921  0.91240192  0.10259699  1.0
  N  N68  1  0.46558135  0.67966070  0.95309053  1.0
  N  N69  1  0.47702890  0.69445982  0.48325364  1.0
  N  N70  1  0.49165265  0.16751316  0.23567489  1.0
  N  N71  1  0.49480977  0.19834322  0.50723890  1.0
  N  N72  1  0.50195282  0.47884474  0.60413596  1.0
  N  N73  1  0.52285121  0.12001231  0.92745078  1.0
  N  N74  1  0.52427855  0.90210911  0.03736008  1.0
  N  N75  1  0.53726702  0.62235081  0.45020178  1.0
  N  N76  1  0.54233716  0.94242749  0.41191899  1.0
  N  N77  1  0.54729268  0.64058664  0.99782753  1.0
  N  N78  1  0.56246828  0.41531385  0.65299958  1.0
  N  N79  1  0.59444787  0.40970563  0.89338846  1.0
  N  N80  1  0.64518808  0.80546189  0.24667372  1.0
  N  N81  1  0.67211091  0.67317920  0.76361063  1.0
  N  N82  1  0.70954438  0.21145063  0.73059949  1.0
  N  N83  1  0.70988717  0.75263884  0.29965546  1.0
  N  N84  1  0.72449990  0.18021592  0.41815783  1.0
  N  N85  1  0.72458222  0.95450641  0.82975018  1.0
  N  N86  1  0.76383630  0.49216376  0.51396292  1.0
  N  N87  1  0.76405255  0.41061986  0.56925965  1.0
  N  N88  1  0.76908886  0.55795411  0.11651043  1.0
  N  N89  1  0.77186220  0.91892595  0.09698207  1.0
  N  N90  1  0.79076297  0.97527752  0.56945489  1.0
  N  N91  1  0.79860004  0.83484107  0.04438207  1.0
  N  N92  1  0.80595513  0.60900817  0.04278716  1.0
  N  N93  1  0.87433091  0.30870484  0.98048218  1.0
  N  N94  1  0.93268363  0.71488128  0.85559140  1.0
  N  N95  1  0.94683332  0.63792979  0.32403899  1.0
  N  N96  1  0.94867247  0.08777700  0.16955287  1.0
  N  N97  1  0.95341296  0.13623717  0.74700583  1.0
  N  N98  1  0.96294092  0.33143462  0.39593174  1.0
  N  N99  1  0.98827828  0.55705537  0.63725728  1.0
