# generated using pymatgen
data_GaN
_symmetry_space_group_name_H-M   P1
_cell_length_a   10.62638068
_cell_length_b   10.82758176
_cell_length_c   12.48081346
_cell_angle_alpha   90.50845116
_cell_angle_beta   91.03377925
_cell_angle_gamma   90.86358192
_symmetry_Int_Tables_number   1
_chemical_formula_structural   GaN
_chemical_formula_sum   'Ga50 N50'
_cell_volume   1435.56060517
_cell_formula_units_Z   50
loop_
 _symmetry_equiv_pos_site_id
 _symmetry_equiv_pos_as_xyz
  1  'x, y, z'
loop_
 _atom_site_type_symbol
 _atom_site_label
 _atom_site_symmetry_multiplicity
 _atom_site_fract_x
 _atom_site_fract_y
 _atom_site_fract_z
 _atom_site_occupancy
  Ga  Ga0  1  0.00764577  0.60421086  0.14904522  1.0
  Ga  Ga1  1  0.01748201  0.09146644  0.50216718  1.0
  Ga  Ga2  1  0.03465105  0.58985384  0.49431681  1.0
  Ga  Ga3  1  0.06575048  0.92044832  0.00031097  1.0
  Ga  Ga4  1  0.07963936  0.87880254  0.43291965  1.0
  Ga  Ga5  1  0.12065729  0.87225886  0.21085539  1.0
  Ga  Ga6  1  0.12876683  0.50686224  0.31048826  1.0
  Ga  Ga7  1  0.13755535  0.29384518  0.44128084  1.0
  Ga  Ga8  1  0.17816480  0.38753875  0.72389503  1.0
  Ga  Ga9  1  0.18380225  0.18586676  0.20952633  1.0
  Ga  Ga10  1  0.19990268  0.91969613  0.82589204  1.0
  Ga  Ga11  1  0.22459357  0.38627801  0.00121669  1.0
  Ga  Ga12  1  0.23307042  0.59102989  0.08424679  1.0
  Ga  Ga13  1  0.24997715  0.74095705  0.61662839  1.0
  Ga  Ga14  1  0.28702231  0.43974440  0.55001462  1.0
  Ga  Ga15  1  0.31860986  0.84352670  0.08049004  1.0
  Ga  Ga16  1  0.35145901  0.71656929  0.30308748  1.0
  Ga  Ga17  1  0.35770252  0.97011640  0.33072393  1.0
  Ga  Ga18  1  0.40072494  0.41040627  0.21585501  1.0
  Ga  Ga19  1  0.40867953  0.71062775  0.85665937  1.0
  Ga  Ga20  1  0.42823605  0.24699920  0.37074644  1.0
  Ga  Ga21  1  0.44027885  0.37207591  0.84252427  1.0
  Ga  Ga22  1  0.45397211  0.19195362  0.06465225  1.0
  Ga  Ga23  1  0.46902093  0.63002211  0.45542499  1.0
  Ga  Ga24  1  0.47757850  0.90151275  0.66140342  1.0
  Ga  Ga25  1  0.49197414  0.60308887  0.69504942  1.0
  Ga  Ga26  1  0.52457801  0.21377426  0.60106506  1.0
  Ga  Ga27  1  0.52465929  0.10813962  0.85200979  1.0
  Ga  Ga28  1  0.53152194  0.94913375  0.46001568  1.0
  Ga  Ga29  1  0.53652986  0.64866419  0.08214581  1.0
  Ga  Ga30  1  0.60806081  0.85731691  0.19842426  1.0
  Ga  Ga31  1  0.63122701  0.44737147  0.31955043  1.0
  Ga  Ga32  1  0.64799554  0.16837934  0.18084857  1.0
  Ga  Ga33  1  0.69915446  0.46371437  0.56707693  1.0
  Ga  Ga34  1  0.71013446  0.73134237  0.66087629  1.0
  Ga  Ga35  1  0.71159508  0.50863422  0.83262474  1.0
  Ga  Ga36  1  0.71805353  0.28370400  0.95911018  1.0
  Ga  Ga37  1  0.72229811  0.21289437  0.43357370  1.0
  Ga  Ga38  1  0.72357622  0.47023652  0.09197746  1.0
  Ga  Ga39  1  0.74723739  0.02901787  0.72150373  1.0
  Ga  Ga40  1  0.75400597  0.74770140  0.04464133  1.0
  Ga  Ga41  1  0.76781660  0.01170998  0.94215372  1.0
  Ga  Ga42  1  0.78156926  0.26729925  0.75484772  1.0
  Ga  Ga43  1  0.81021028  0.97170649  0.35576480  1.0
  Ga  Ga44  1  0.83171362  0.70999210  0.29085736  1.0
  Ga  Ga45  1  0.89566589  0.98136291  0.16037886  1.0
  Ga  Ga46  1  0.90459123  0.28102463  0.31045063  1.0
  Ga  Ga47  1  0.96286108  0.50764624  0.68273544  1.0
  Ga  Ga48  1  0.99170765  0.25504116  0.65556798  1.0
  Ga  Ga49  1  0.99754841  0.87630154  0.67398971  1.0
  N  N50  1  0.00527567  0.16826961  0.83781513  1.0
  N  N51  1  0.04375695  0.27404883  0.01096254  1.0
  N  N52  1  0.06474439  0.67560502  0.80465766  1.0
  N  N53  1  0.07310534  0.03803679  0.14883374  1.0
  N  N54  1  0.07764973  0.31928004  0.28470841  1.0
  N  N55  1  0.08462617  0.76123741  0.55561487  1.0
  N  N56  1  0.14069859  0.67226111  0.86958374  1.0
  N  N57  1  0.22022211  0.84409003  0.33941781  1.0
  N  N58  1  0.23912587  0.10212432  0.78246752  1.0
  N  N59  1  0.25601646  0.05903168  0.57933403  1.0
  N  N60  1  0.27015405  0.39884219  0.85594289  1.0
  N  N61  1  0.29021719  0.55722501  0.23599495  1.0
  N  N62  1  0.30254792  0.13359655  0.31584152  1.0
  N  N63  1  0.30587739  0.28414618  0.11082304  1.0
  N  N64  1  0.31760633  0.14211563  0.56053877  1.0
  N  N65  1  0.32214791  0.82693603  0.73950386  1.0
  N  N66  1  0.33269687  0.15757852  0.79000610  1.0
  N  N67  1  0.35064089  0.94745121  0.95471229  1.0
  N  N68  1  0.35909788  0.60978726  0.58093206  1.0
  N  N69  1  0.37392146  0.68509882  0.01376293  1.0
  N  N70  1  0.42514172  0.85869928  0.21017037  1.0
  N  N71  1  0.42632863  0.03966839  0.96540911  1.0
  N  N72  1  0.44637099  0.36736323  0.49920954  1.0
  N  N73  1  0.53214429  0.26474485  0.93300967  1.0
  N  N74  1  0.54052453  0.45517105  0.47141259  1.0
  N  N75  1  0.55528289  0.06408655  0.70727592  1.0
  N  N76  1  0.55620398  0.43352638  0.73760258  1.0
  N  N77  1  0.56027619  0.83016649  0.85605016  1.0
  N  N78  1  0.56269582  0.50143157  0.17147304  1.0
  N  N79  1  0.56328626  0.14085459  0.46245095  1.0
  N  N80  1  0.62820781  0.34321097  0.67576296  1.0
  N  N81  1  0.65192406  0.84937832  0.91072338  1.0
  N  N82  1  0.66686486  0.77280799  0.33003346  1.0
  N  N83  1  0.68383964  0.86478882  0.41089585  1.0
  N  N84  1  0.72265719  0.29212998  0.28153058  1.0
  N  N85  1  0.72571027  0.01161666  0.21133083  1.0
  N  N86  1  0.76670797  0.53574252  0.43019829  1.0
  N  N87  1  0.78734570  0.56313284  0.68632891  1.0
  N  N88  1  0.81515814  0.87318985  0.67913337  1.0
  N  N89  1  0.82843997  0.62022868  0.14847726  1.0
  N  N90  1  0.85917305  0.61098930  0.42079676  1.0
  N  N91  1  0.86085736  0.35511426  0.46113259  1.0
  N  N92  1  0.87515906  0.12474051  0.40374189  1.0
  N  N93  1  0.87814331  0.88944050  0.02615824  1.0
  N  N94  1  0.93003141  0.50610841  0.89581565  1.0
  N  N95  1  0.94683489  0.85630343  0.29569336  1.0
  N  N96  1  0.95974487  0.37137435  0.52062758  1.0
  N  N97  1  0.96063274  0.24945302  0.06265708  1.0
  N  N98  1  0.97283225  0.06863442  0.85367245  1.0
  N  N99  1  0.97704346  0.49499442  0.97795976  1.0
