# generated using pymatgen
data_GaN
_symmetry_space_group_name_H-M   P1
_cell_length_a   11.39309327
_cell_length_b   11.48762959
_cell_length_c   11.56571797
_cell_angle_alpha   85.23578760
_cell_angle_beta   88.38892099
_cell_angle_gamma   87.82118427
_symmetry_Int_Tables_number   1
_chemical_formula_structural   GaN
_chemical_formula_sum   'Ga50 N50'
_cell_volume   1506.92290758
_cell_formula_units_Z   50
loop_
 _symmetry_equiv_pos_site_id
 _symmetry_equiv_pos_as_xyz
  1  'x, y, z'
loop_
 _atom_site_type_symbol
 _atom_site_label
 _atom_site_symmetry_multiplicity
 _atom_site_fract_x
 _atom_site_fract_y
 _atom_site_fract_z
 _atom_site_occupancy
  Ga  Ga0  1  0.00751381  0.09559719  0.36593129  1.0
  Ga  Ga1  1  0.03471131  0.48958649  0.80820729  1.0
  Ga  Ga2  1  0.06570650  0.69772868  0.60927273  1.0
  Ga  Ga3  1  0.07204815  0.89915427  0.13639887  1.0
  Ga  Ga4  1  0.11127856  0.40501408  0.06106077  1.0
  Ga  Ga5  1  0.13801127  0.20726877  0.52750303  1.0
  Ga  Ga6  1  0.14324484  0.63517532  0.17115814  1.0
  Ga  Ga7  1  0.15043921  0.04935551  0.85430590  1.0
  Ga  Ga8  1  0.16085180  0.90407345  0.59457586  1.0
  Ga  Ga9  1  0.16410242  0.79258123  0.88998407  1.0
  Ga  Ga10  1  0.16504580  0.16873818  0.05108533  1.0
  Ga  Ga11  1  0.19750942  0.33301628  0.76586696  1.0
  Ga  Ga12  1  0.19943585  0.35135503  0.29207172  1.0
  Ga  Ga13  1  0.27000135  0.65041145  0.68925245  1.0
  Ga  Ga14  1  0.28892192  0.02507276  0.41523323  1.0
  Ga  Ga15  1  0.29541298  0.52707554  0.90646000  1.0
  Ga  Ga16  1  0.33073001  0.31598175  0.07029530  1.0
  Ga  Ga17  1  0.35137112  0.62373414  0.10790451  1.0
  Ga  Ga18  1  0.35692129  0.91052567  0.01126058  1.0
  Ga  Ga19  1  0.37513026  0.97503415  0.73766902  1.0
  Ga  Ga20  1  0.39439686  0.13958736  0.26707077  1.0
  Ga  Ga21  1  0.40136089  0.17465097  0.88310003  1.0
  Ga  Ga22  1  0.40467104  0.21516524  0.59454654  1.0
  Ga  Ga23  1  0.43573127  0.74803871  0.56964232  1.0
  Ga  Ga24  1  0.45470247  0.78068168  0.85497167  1.0
  Ga  Ga25  1  0.49785901  0.39621837  0.25504402  1.0
  Ga  Ga26  1  0.54158119  0.44263764  0.00831197  1.0
  Ga  Ga27  1  0.55653342  0.16887534  0.08339397  1.0
  Ga  Ga28  1  0.56043666  0.96947645  0.48023589  1.0
  Ga  Ga29  1  0.56503444  0.57829553  0.35496393  1.0
  Ga  Ga30  1  0.57659381  0.68481169  0.13209567  1.0
  Ga  Ga31  1  0.60104029  0.23401614  0.46745755  1.0
  Ga  Ga32  1  0.61950152  0.04495992  0.70685955  1.0
  Ga  Ga33  1  0.62057156  0.05734121  0.27491244  1.0
  Ga  Ga34  1  0.64462815  0.82258068  0.71542522  1.0
  Ga  Ga35  1  0.71381608  0.43413402  0.45298457  1.0
  Ga  Ga36  1  0.72468930  0.74186287  0.45660918  1.0
  Ga  Ga37  1  0.74585015  0.24456308  0.25724851  1.0
  Ga  Ga38  1  0.75370667  0.46257912  0.14547264  1.0
  Ga  Ga39  1  0.78896470  0.61139306  0.92844723  1.0
  Ga  Ga40  1  0.81486927  0.93275357  0.24407512  1.0
  Ga  Ga41  1  0.82450678  0.02864769  0.47698335  1.0
  Ga  Ga42  1  0.82857417  0.68469640  0.22388237  1.0
  Ga  Ga43  1  0.83926260  0.61072278  0.68833624  1.0
  Ga  Ga44  1  0.92807894  0.74040832  0.02308539  1.0
  Ga  Ga45  1  0.93533235  0.16046353  0.11723254  1.0
  Ga  Ga46  1  0.93831185  0.82743073  0.78348887  1.0
  Ga  Ga47  1  0.94719177  0.57418460  0.46508490  1.0
  Ga  Ga48  1  0.97470074  0.41619436  0.33630422  1.0
  Ga  Ga49  1  0.98453138  0.76976465  0.37209271  1.0
  N  N50  1  0.07430139  0.26598471  0.37490851  1.0
  N  N51  1  0.09019813  0.65619081  0.00236089  1.0
  N  N52  1  0.09550994  0.46941579  0.21372263  1.0
  N  N53  1  0.09927433  0.77271111  0.24891245  1.0
  N  N54  1  0.11740710  0.55219156  0.95073307  1.0
  N  N55  1  0.13230440  0.04492546  0.48025755  1.0
  N  N56  1  0.18089553  0.92156344  0.99806934  1.0
  N  N57  1  0.20347613  0.94578015  0.74545112  1.0
  N  N58  1  0.22481102  0.19284770  0.88166034  1.0
  N  N59  1  0.24518057  0.27373670  0.61762543  1.0
  N  N60  1  0.24824512  0.59831287  0.43426087  1.0
  N  N61  1  0.24880015  0.50405191  0.41490252  1.0
  N  N62  1  0.30431960  0.69736240  0.84283664  1.0
  N  N63  1  0.33054874  0.88796878  0.52016378  1.0
  N  N64  1  0.33148386  0.12415895  0.10965659  1.0
  N  N65  1  0.33443075  0.86363891  0.26555035  1.0
  N  N66  1  0.35499565  0.31226896  0.24628223  1.0
  N  N67  1  0.40123949  0.98337583  0.56425799  1.0
  N  N68  1  0.40820248  0.06573178  0.02980775  1.0
  N  N69  1  0.41021552  0.80418223  0.29486618  1.0
  N  N70  1  0.44746483  0.76241380  0.03872845  1.0
  N  N71  1  0.44868406  0.49659275  0.55147329  1.0
  N  N72  1  0.46555094  0.12792359  0.73912864  1.0
  N  N73  1  0.46742953  0.56657688  0.22316414  1.0
  N  N74  1  0.47226230  0.41892866  0.61397499  1.0
  N  N75  1  0.47569386  0.28825535  0.97723760  1.0
  N  N76  1  0.55604794  0.49866303  0.80404897  1.0
  N  N77  1  0.59306121  0.80686952  0.54375650  1.0
  N  N78  1  0.60966000  0.56857634  0.75486558  1.0
  N  N79  1  0.62451644  0.34667359  0.14998021  1.0
  N  N80  1  0.65720533  0.57259211  0.03664960  1.0
  N  N81  1  0.66539760  0.99599729  0.95585790  1.0
  N  N82  1  0.66666667  0.69892566  0.28298684  1.0
  N  N83  1  0.67132187  0.08135626  0.54239480  1.0
  N  N84  1  0.67661750  0.90266890  0.99293352  1.0
  N  N85  1  0.72416738  0.31484520  0.86912081  1.0
  N  N86  1  0.76816663  0.23836733  0.83008631  1.0
  N  N87  1  0.78282520  0.58377160  0.52673857  1.0
  N  N88  1  0.80698849  0.77580328  0.70705180  1.0
  N  N89  1  0.81116472  0.39810162  0.29981122  1.0
  N  N90  1  0.83966467  0.86789294  0.41483686  1.0
  N  N91  1  0.85782773  0.34142028  0.62223195  1.0
  N  N92  1  0.86288658  0.45250783  0.00277747  1.0
  N  N93  1  0.90370172  0.98623628  0.88368276  1.0
  N  N94  1  0.92429328  0.05780614  0.65669988  1.0
  N  N95  1  0.95359925  0.34836332  0.59669672  1.0
  N  N96  1  0.95559984  0.40792316  0.96853718  1.0
  N  N97  1  0.97010677  0.05624205  0.90715517  1.0
  N  N98  1  0.97540957  0.01469421  0.21761277  1.0
  N  N99  1  0.99581818  0.12040336  0.67424778  1.0
