# generated using pymatgen
data_GaN
_symmetry_space_group_name_H-M   P1
_cell_length_a   10.72492827
_cell_length_b   12.16047399
_cell_length_c   11.58797792
_cell_angle_alpha   93.14933026
_cell_angle_beta   91.94284635
_cell_angle_gamma   85.56648448
_symmetry_Int_Tables_number   1
_chemical_formula_structural   GaN
_chemical_formula_sum   'Ga50 N50'
_cell_volume   1503.84089815
_cell_formula_units_Z   50
loop_
 _symmetry_equiv_pos_site_id
 _symmetry_equiv_pos_as_xyz
  1  'x, y, z'
loop_
 _atom_site_type_symbol
 _atom_site_label
 _atom_site_symmetry_multiplicity
 _atom_site_fract_x
 _atom_site_fract_y
 _atom_site_fract_z
 _atom_site_occupancy
  Ga  Ga0  1  0.05123219  0.23998404  0.11673357  1.0
  Ga  Ga1  1  0.05539176  0.54267244  0.50401630  1.0
  Ga  Ga2  1  0.05885602  0.76658311  0.43344491  1.0
  Ga  Ga3  1  0.06222896  0.45165555  0.96879434  1.0
  Ga  Ga4  1  0.06247236  0.82829419  0.89397666  1.0
  Ga  Ga5  1  0.08076460  0.63385776  0.22160066  1.0
  Ga  Ga6  1  0.09225381  0.59830627  0.80790870  1.0
  Ga  Ga7  1  0.12433642  0.02718975  0.37965203  1.0
  Ga  Ga8  1  0.16455708  0.87543113  0.15459942  1.0
  Ga  Ga9  1  0.17581759  0.37829815  0.62892314  1.0
  Ga  Ga10  1  0.17687926  0.08521906  0.65129923  1.0
  Ga  Ga11  1  0.20102835  0.05561523  0.90270480  1.0
  Ga  Ga12  1  0.22945557  0.26635706  0.38703174  1.0
  Ga  Ga13  1  0.23361606  0.42115201  0.13696567  1.0
  Ga  Ga14  1  0.25114179  0.81096697  0.69984078  1.0
  Ga  Ga15  1  0.25284063  0.64673625  0.54767655  1.0
  Ga  Ga16  1  0.27598187  0.33599477  0.90286154  1.0
  Ga  Ga17  1  0.30593267  0.11718777  0.17742872  1.0
  Ga  Ga18  1  0.33573661  0.71125391  0.93418520  1.0
  Ga  Ga19  1  0.35559681  0.51069261  0.37476369  1.0
  Ga  Ga20  1  0.35779051  0.69141558  0.21442868  1.0
  Ga  Ga21  1  0.35981278  0.23804051  0.70504907  1.0
  Ga  Ga22  1  0.38465812  0.07467305  0.51434834  1.0
  Ga  Ga23  1  0.39520764  0.88429536  0.31088089  1.0
  Ga  Ga24  1  0.41246439  0.90817534  0.04924068  1.0
  Ga  Ga25  1  0.43713141  0.54652382  0.01645091  1.0
  Ga  Ga26  1  0.46998160  0.13230041  0.92300587  1.0
  Ga  Ga27  1  0.47327925  0.00395945  0.73162643  1.0
  Ga  Ga28  1  0.49580848  0.68101197  0.43821898  1.0
  Ga  Ga29  1  0.50610764  0.21377857  0.26135243  1.0
  Ga  Ga30  1  0.52078651  0.29509060  0.06383861  1.0
  Ga  Ga31  1  0.58725934  0.49480751  0.25010102  1.0
  Ga  Ga32  1  0.60162537  0.91668450  0.55782124  1.0
  Ga  Ga33  1  0.61957597  0.98120662  0.28990821  1.0
  Ga  Ga34  1  0.62060984  0.73668256  0.15959814  1.0
  Ga  Ga35  1  0.62988484  0.81755912  0.88378697  1.0
  Ga  Ga36  1  0.64585400  0.13759246  0.49062129  1.0
  Ga  Ga37  1  0.73601790  0.74845900  0.34530003  1.0
  Ga  Ga38  1  0.76844626  0.49727634  0.39869067  1.0
  Ga  Ga39  1  0.78872349  0.71723500  0.58810110  1.0
  Ga  Ga40  1  0.81838082  0.36797140  0.10763033  1.0
  Ga  Ga41  1  0.82273050  0.81416100  0.76950464  1.0
  Ga  Ga42  1  0.83319015  0.15777532  0.27707167  1.0
  Ga  Ga43  1  0.85293791  0.68037902  0.98778978  1.0
  Ga  Ga44  1  0.87079456  0.97142927  0.44456448  1.0
  Ga  Ga45  1  0.89872208  0.99499791  0.70732401  1.0
  Ga  Ga46  1  0.91454065  0.90514487  0.21524001  1.0
  Ga  Ga47  1  0.95004643  0.19237014  0.88202510  1.0
  Ga  Ga48  1  0.95213316  0.37275009  0.35775171  1.0
  Ga  Ga49  1  0.99588832  0.97106815  0.03574471  1.0
  N  N50  1  0.04905860  0.92670370  0.49933565  1.0
  N  N51  1  0.05428488  0.11398575  0.00472550  1.0
  N  N52  1  0.05786302  0.79101016  0.26079660  1.0
  N  N53  1  0.07307608  0.95524476  0.62034522  1.0
  N  N54  1  0.10558125  0.38057160  0.45764092  1.0
  N  N55  1  0.14193438  0.53953918  0.65337347  1.0
  N  N56  1  0.19486663  0.72889922  0.82904314  1.0
  N  N57  1  0.20741710  0.26297253  0.20988313  1.0
  N  N58  1  0.20918657  0.12953677  0.48062725  1.0
  N  N59  1  0.24891376  0.98581427  0.25966406  1.0
  N  N60  1  0.24909791  0.56808112  0.23105840  1.0
  N  N61  1  0.30347176  0.78754018  0.08556613  1.0
  N  N62  1  0.34471920  0.05855205  0.01880205  1.0
  N  N63  1  0.37806397  0.89072663  0.79292070  1.0
  N  N64  1  0.37904802  0.40326340  0.03154502  1.0
  N  N65  1  0.42080112  0.24896753  0.40476289  1.0
  N  N66  1  0.44295349  0.83547426  0.88648507  1.0
  N  N67  1  0.46731254  0.60641284  0.72991664  1.0
  N  N68  1  0.47430880  0.21375907  0.50797036  1.0
  N  N69  1  0.49779750  0.97386100  0.42188495  1.0
  N  N70  1  0.51180729  0.61269328  0.15620813  1.0
  N  N71  1  0.52197957  0.42365410  0.57305904  1.0
  N  N72  1  0.52377690  0.89018169  0.18253520  1.0
  N  N73  1  0.56002080  0.64229820  0.72340268  1.0
  N  N74  1  0.61411359  0.44785200  0.54511128  1.0
  N  N75  1  0.62848816  0.47922771  0.90881721  1.0
  N  N76  1  0.63445684  0.76257853  0.50007851  1.0
  N  N77  1  0.64640478  0.38716017  0.12643634  1.0
  N  N78  1  0.65842613  0.26040262  0.73050988  1.0
  N  N79  1  0.66573442  0.13910736  0.31976165  1.0
  N  N80  1  0.66748044  0.03701409  0.01449571  1.0
  N  N81  1  0.69300062  0.22836183  0.81530127  1.0
  N  N82  1  0.69577275  0.74329897  0.01506297  1.0
  N  N83  1  0.72020787  0.51511416  0.89833934  1.0
  N  N84  1  0.75367566  0.02085398  0.56495167  1.0
  N  N85  1  0.75617458  0.07310271  0.05100068  1.0
  N  N86  1  0.77605961  0.89756087  0.32028817  1.0
  N  N87  1  0.83136405  0.46257993  0.69103194  1.0
  N  N88  1  0.84968088  0.24092429  0.53485432  1.0
  N  N89  1  0.87938392  0.59945399  0.48863573  1.0
  N  N90  1  0.88725830  0.71081764  0.43824117  1.0
  N  N91  1  0.90519244  0.51545556  0.16249992  1.0
  N  N92  1  0.91171890  0.27525288  0.22302537  1.0
  N  N93  1  0.91618795  0.41883071  0.73098513  1.0
  N  N94  1  0.93438157  0.22026457  0.59306372  1.0
  N  N95  1  0.94376825  0.71203859  0.85902738  1.0
  N  N96  1  0.94763748  0.33111028  0.99246926  1.0
  N  N97  1  0.95201845  0.04572216  0.32109632  1.0
  N  N98  1  0.95211405  0.58422817  0.08870149  1.0
  N  N99  1  0.97490783  0.50687796  0.25576267  1.0
