# generated using pymatgen
data_GaN
_symmetry_space_group_name_H-M   P1
_cell_length_a   10.94569353
_cell_length_b   12.01964055
_cell_length_c   11.38020511
_cell_angle_alpha   89.40560421
_cell_angle_beta   89.43308964
_cell_angle_gamma   91.86694357
_symmetry_Int_Tables_number   1
_chemical_formula_structural   GaN
_chemical_formula_sum   'Ga50 N50'
_cell_volume   1496.26365311
_cell_formula_units_Z   50
loop_
 _symmetry_equiv_pos_site_id
 _symmetry_equiv_pos_as_xyz
  1  'x, y, z'
loop_
 _atom_site_type_symbol
 _atom_site_label
 _atom_site_symmetry_multiplicity
 _atom_site_fract_x
 _atom_site_fract_y
 _atom_site_fract_z
 _atom_site_occupancy
  Ga  Ga0  1  0.00741635  0.62212064  0.92350948  1.0
  Ga  Ga1  1  0.06398140  0.33030460  0.45381311  1.0
  Ga  Ga2  1  0.06488597  0.51518869  0.26054040  1.0
  Ga  Ga3  1  0.06695620  0.82747057  0.10795075  1.0
  Ga  Ga4  1  0.10722965  0.35546230  0.04083531  1.0
  Ga  Ga5  1  0.13619716  0.27293753  0.79907877  1.0
  Ga  Ga6  1  0.15800269  0.08364653  0.03998034  1.0
  Ga  Ga7  1  0.20506608  0.82628657  0.34319792  1.0
  Ga  Ga8  1  0.21178684  0.24683410  0.58052084  1.0
  Ga  Ga9  1  0.21434878  0.95010951  0.60242281  1.0
  Ga  Ga10  1  0.21889649  0.10327814  0.33499114  1.0
  Ga  Ga11  1  0.22259983  0.62339105  0.13416700  1.0
  Ga  Ga12  1  0.24018944  0.82832007  0.93645352  1.0
  Ga  Ga13  1  0.24515134  0.73937668  0.54600141  1.0
  Ga  Ga14  1  0.24802962  0.57060837  0.72511163  1.0
  Ga  Ga15  1  0.25642792  0.36735906  0.22394754  1.0
  Ga  Ga16  1  0.27368129  0.48501865  0.43916820  1.0
  Ga  Ga17  1  0.34598650  0.40778008  0.87691690  1.0
  Ga  Ga18  1  0.36140838  0.18900615  0.84499506  1.0
  Ga  Ga19  1  0.37328645  0.67129972  0.32692055  1.0
  Ga  Ga20  1  0.40475985  0.91702568  0.19906724  1.0
  Ga  Ga21  1  0.41540223  0.07528877  0.55982481  1.0
  Ga  Ga22  1  0.41592092  0.81589657  0.79027034  1.0
  Ga  Ga23  1  0.42289607  0.20665777  0.13077228  1.0
  Ga  Ga24  1  0.42735158  0.42419640  0.64652017  1.0
  Ga  Ga25  1  0.44214836  0.44842691  0.09481342  1.0
  Ga  Ga26  1  0.45436985  0.26905311  0.39417889  1.0
  Ga  Ga27  1  0.45986450  0.87297843  0.46272867  1.0
  Ga  Ga28  1  0.46340165  0.98882116  0.98076070  1.0
  Ga  Ga29  1  0.47581136  0.62161425  0.58147675  1.0
  Ga  Ga30  1  0.49154154  0.72364826  0.05125653  1.0
  Ga  Ga31  1  0.58792589  0.08118769  0.41317730  1.0
  Ga  Ga32  1  0.62267059  0.12858467  0.19143692  1.0
  Ga  Ga33  1  0.63793662  0.89636077  0.26381061  1.0
  Ga  Ga34  1  0.66489583  0.34728815  0.27541103  1.0
  Ga  Ga35  1  0.66725582  0.92615761  0.77623383  1.0
  Ga  Ga36  1  0.66880513  0.14277108  0.69533564  1.0
  Ga  Ga37  1  0.71194492  0.51713667  0.09738307  1.0
  Ga  Ga38  1  0.72159936  0.72268892  0.91027016  1.0
  Ga  Ga39  1  0.76826528  0.75265457  0.18152353  1.0
  Ga  Ga40  1  0.77021272  0.92578411  0.55229578  1.0
  Ga  Ga41  1  0.84319489  0.45871248  0.36279386  1.0
  Ga  Ga42  1  0.85270590  0.17020812  0.47202685  1.0
  Ga  Ga43  1  0.86934866  0.69963021  0.67505610  1.0
  Ga  Ga44  1  0.90841112  0.13378328  0.93157227  1.0
  Ga  Ga45  1  0.91621911  0.74391972  0.34710765  1.0
  Ga  Ga46  1  0.93143656  0.21751977  0.25355863  1.0
  Ga  Ga47  1  0.94195480  0.90025816  0.87410094  1.0
  Ga  Ga48  1  0.97462978  0.97579075  0.32276148  1.0
  Ga  Ga49  1  0.99935274  0.56333050  0.55168490  1.0
  N  N50  1  0.01064788  0.08738866  0.70897112  1.0
  N  N51  1  0.02555608  0.80796593  0.65217798  1.0
  N  N52  1  0.04591330  0.83576487  0.26933115  1.0
  N  N53  1  0.05699528  0.10160739  0.24013809  1.0
  N  N54  1  0.05732023  0.87342096  0.72509806  1.0
  N  N55  1  0.07657078  0.20797593  0.95972634  1.0
  N  N56  1  0.10523729  0.93438028  0.98728235  1.0
  N  N57  1  0.12157906  0.52701291  0.83926210  1.0
  N  N58  1  0.13025713  0.70686809  0.01953908  1.0
  N  N59  1  0.14923304  0.42181118  0.88286204  1.0
  N  N60  1  0.18036041  0.57627067  0.56289006  1.0
  N  N61  1  0.23824959  0.09803660  0.51696631  1.0
  N  N62  1  0.28002041  0.96442540  0.29474438  1.0
  N  N63  1  0.32185398  0.22692765  0.27832586  1.0
  N  N64  1  0.34157132  0.11247654  0.00423388  1.0
  N  N65  1  0.35341144  0.34527736  0.51872504  1.0
  N  N66  1  0.35723922  0.70232498  0.68117092  1.0
  N  N67  1  0.38387510  0.84914842  0.04455076  1.0
  N  N68  1  0.39299588  0.60102261  0.10593989  1.0
  N  N69  1  0.44486472  0.08263589  0.74077575  1.0
  N  N70  1  0.48126631  0.80750106  0.30400561  1.0
  N  N71  1  0.48711624  0.98807643  0.79906850  1.0
  N  N72  1  0.56095178  0.99110172  0.12646217  1.0
  N  N73  1  0.56271422  0.56673115  0.32450174  1.0
  N  N74  1  0.58854864  0.79224744  0.84427867  1.0
  N  N75  1  0.59241469  0.53304661  0.86821864  1.0
  N  N76  1  0.62146416  0.81348873  0.53777341  1.0
  N  N77  1  0.62189392  0.48936021  0.78564757  1.0
  N  N78  1  0.62812752  0.26334893  0.93601464  1.0
  N  N79  1  0.63256465  0.72063412  0.58118823  1.0
  N  N80  1  0.64985792  0.37363115  0.57076814  1.0
  N  N81  1  0.65100010  0.61563980  0.34067499  1.0
  N  N82  1  0.66480856  0.68098058  0.06494869  1.0
  N  N83  1  0.68436564  0.45934919  0.54180297  1.0
  N  N84  1  0.71649375  0.08221854  0.53100619  1.0
  N  N85  1  0.71725302  0.30129538  0.96645768  1.0
  N  N86  1  0.76082086  0.22418261  0.21533783  1.0
  N  N87  1  0.83754985  0.91578093  0.06651597  1.0
  N  N88  1  0.83817098  0.00583663  0.10282280  1.0
  N  N89  1  0.87867463  0.30688578  0.56903360  1.0
  N  N90  1  0.88129955  0.88376075  0.43161016  1.0
  N  N91  1  0.88593051  0.72194841  0.85398675  1.0
  N  N92  1  0.88898678  0.44286838  0.78977213  1.0
  N  N93  1  0.90398387  0.40326355  0.52753985  1.0
  N  N94  1  0.90682520  0.35108764  0.79437766  1.0
  N  N95  1  0.91040351  0.52648503  0.03911532  1.0
  N  N96  1  0.95451240  0.07780652  0.62639007  1.0
  N  N97  1  0.95934424  0.59102183  0.38053720  1.0
  N  N98  1  0.98497778  0.47278857  0.10067620  1.0
  N  N99  1  0.98928458  0.36313746  0.30676346  1.0
