# generated using pymatgen
data_GaN
_symmetry_space_group_name_H-M   P1
_cell_length_a   11.52289704
_cell_length_b   11.52908041
_cell_length_c   11.85182874
_cell_angle_alpha   88.47704679
_cell_angle_beta   86.93221168
_cell_angle_gamma   93.25278981
_symmetry_Int_Tables_number   1
_chemical_formula_structural   GaN
_chemical_formula_sum   'Ga50 N50'
_cell_volume   1569.01448323
_cell_formula_units_Z   50
loop_
 _symmetry_equiv_pos_site_id
 _symmetry_equiv_pos_as_xyz
  1  'x, y, z'
loop_
 _atom_site_type_symbol
 _atom_site_label
 _atom_site_symmetry_multiplicity
 _atom_site_fract_x
 _atom_site_fract_y
 _atom_site_fract_z
 _atom_site_occupancy
  Ga  Ga0  1  0.00057406  0.33663807  0.66829001  1.0
  Ga  Ga1  1  0.00184056  0.16697230  0.81036585  1.0
  Ga  Ga2  1  0.06563885  0.69231022  0.94176647  1.0
  Ga  Ga3  1  0.06907689  0.37415098  0.92714183  1.0
  Ga  Ga4  1  0.10918996  0.89067315  0.43759517  1.0
  Ga  Ga5  1  0.11255478  0.87978183  0.76317967  1.0
  Ga  Ga6  1  0.14617537  0.09718969  0.97520567  1.0
  Ga  Ga7  1  0.15127331  0.28946956  0.31600512  1.0
  Ga  Ga8  1  0.17958152  0.07096936  0.22518102  1.0
  Ga  Ga9  1  0.18864474  0.69418959  0.46540514  1.0
  Ga  Ga10  1  0.18982433  0.78152941  0.20464122  1.0
  Ga  Ga11  1  0.20262661  0.60492444  0.74690010  1.0
  Ga  Ga12  1  0.27025088  0.83739954  0.93886199  1.0
  Ga  Ga13  1  0.28516796  0.48901068  0.25448662  1.0
  Ga  Ga14  1  0.30204497  0.23706559  0.79141682  1.0
  Ga  Ga15  1  0.33084662  0.42744760  0.95197634  1.0
  Ga  Ga16  1  0.36553563  0.24602102  0.07948486  1.0
  Ga  Ga17  1  0.39465063  0.24312673  0.32684554  1.0
  Ga  Ga18  1  0.41168038  0.59317418  0.07258939  1.0
  Ga  Ga19  1  0.42266967  0.57165249  0.76842933  1.0
  Ga  Ga20  1  0.42312135  0.70464578  0.27270347  1.0
  Ga  Ga21  1  0.43862389  0.04769923  0.67097067  1.0
  Ga  Ga22  1  0.44288145  0.04967004  0.91257552  1.0
  Ga  Ga23  1  0.46844777  0.23327533  0.54630767  1.0
  Ga  Ga24  1  0.50331117  0.84918114  0.10829003  1.0
  Ga  Ga25  1  0.52999939  0.29528467  0.80853276  1.0
  Ga  Ga26  1  0.55839072  0.84594259  0.85557109  1.0
  Ga  Ga27  1  0.59573179  0.42835521  0.12020619  1.0
  Ga  Ga28  1  0.59718607  0.62400395  0.47374910  1.0
  Ga  Ga29  1  0.61415718  0.13033142  0.37810464  1.0
  Ga  Ga30  1  0.61670380  0.22066053  0.06787730  1.0
  Ga  Ga31  1  0.62488156  0.87553732  0.34882864  1.0
  Ga  Ga32  1  0.63059480  0.58600036  0.88655990  1.0
  Ga  Ga33  1  0.65026176  0.96631829  0.56929021  1.0
  Ga  Ga34  1  0.65757261  0.74619225  0.65751615  1.0
  Ga  Ga35  1  0.67906560  0.36586509  0.37415739  1.0
  Ga  Ga36  1  0.68523111  0.00978636  0.07365872  1.0
  Ga  Ga37  1  0.69653300  0.50080238  0.68377273  1.0
  Ga  Ga38  1  0.70433849  0.07044000  0.79345312  1.0
  Ga  Ga39  1  0.75542148  0.22886941  0.61082420  1.0
  Ga  Ga40  1  0.76873169  0.29689615  0.91352302  1.0
  Ga  Ga41  1  0.80473288  0.14823904  0.24500919  1.0
  Ga  Ga42  1  0.84125388  0.48359870  0.52593775  1.0
  Ga  Ga43  1  0.86675508  0.76390325  0.84759892  1.0
  Ga  Ga44  1  0.92522677  0.50971688  0.78600128  1.0
  Ga  Ga45  1  0.93044665  0.31051700  0.39021932  1.0
  Ga  Ga46  1  0.93147773  0.99377703  0.63304124  1.0
  Ga  Ga47  1  0.95237668  0.16096391  0.07401622  1.0
  Ga  Ga48  1  0.98158945  0.67061291  0.60498683  1.0
  Ga  Ga49  1  0.98540797  0.09461908  0.36604663  1.0
  N  N50  1  0.00440200  0.63665706  0.24313367  1.0
  N  N51  1  0.00698726  0.58914671  0.32618706  1.0
  N  N52  1  0.02833415  0.01495342  0.49841877  1.0
  N  N53  1  0.07266348  0.30507290  0.15682677  1.0
  N  N54  1  0.07514284  0.53324939  0.86616816  1.0
  N  N55  1  0.11159451  0.38384316  0.09550865  1.0
  N  N56  1  0.13938885  0.61139144  0.59905437  1.0
  N  N57  1  0.15518235  0.24345782  0.87239046  1.0
  N  N58  1  0.16105621  0.91778591  0.28309620  1.0
  N  N59  1  0.16680778  0.29690114  0.58056094  1.0
  N  N60  1  0.17196222  0.75733799  0.05302012  1.0
  N  N61  1  0.19384634  0.75483921  0.81803404  1.0
  N  N62  1  0.21318886  0.99124930  0.85459237  1.0
  N  N63  1  0.24893515  0.26079653  0.61753097  1.0
  N  N64  1  0.25742968  0.66499668  0.31520028  1.0
  N  N65  1  0.26238209  0.10866954  0.08575242  1.0
  N  N66  1  0.31386531  0.06172703  0.80616862  1.0
  N  N67  1  0.33899801  0.87973845  0.60054439  1.0
  N  N68  1  0.34323463  0.49014126  0.50163858  1.0
  N  N69  1  0.38186933  0.79450318  0.59242326  1.0
  N  N70  1  0.41294251  0.96733172  0.24166715  1.0
  N  N71  1  0.41421058  0.53141116  0.55177527  1.0
  N  N72  1  0.43070548  0.88600535  0.96849083  1.0
  N  N73  1  0.43648743  0.97792795  0.33289246  1.0
  N  N74  1  0.44209657  0.41348805  0.31441135  1.0
  N  N75  1  0.48737392  0.20362160  0.95932285  1.0
  N  N76  1  0.52720136  0.73644545  0.38608491  1.0
  N  N77  1  0.54573273  0.69776934  0.78952799  1.0
  N  N78  1  0.54910993  0.99910611  0.78053652  1.0
  N  N79  1  0.55119706  0.44348365  0.29775133  1.0
  N  N80  1  0.55503247  0.46375924  0.78311629  1.0
  N  N81  1  0.57230115  0.56526304  0.03710464  1.0
  N  N82  1  0.63749379  0.25719527  0.50186369  1.0
  N  N83  1  0.69377071  0.24178917  0.77351009  1.0
  N  N84  1  0.72905835  0.86112110  0.88903609  1.0
  N  N85  1  0.73167262  0.65144906  0.20842303  1.0
  N  N86  1  0.74175824  0.63130464  0.29994572  1.0
  N  N87  1  0.75472973  0.97445621  0.92187537  1.0
  N  N88  1  0.77814240  0.05702915  0.63745972  1.0
  N  N89  1  0.78626757  0.60675916  0.80783926  1.0
  N  N90  1  0.80762965  0.81565661  0.41159348  1.0
  N  N91  1  0.82892376  0.45525038  0.12274360  1.0
  N  N92  1  0.83008191  0.43729309  0.36743098  1.0
  N  N93  1  0.87526216  0.79318777  0.09112735  1.0
  N  N94  1  0.88738165  0.88228737  0.12604115  1.0
  N  N95  1  0.89540584  0.31882838  0.55381284  1.0
  N  N96  1  0.89886362  0.84319166  0.37700635  1.0
  N  N97  1  0.90342998  0.50637505  0.07736072  1.0
  N  N98  1  0.92691914  0.26414957  0.93621882  1.0
  N  N99  1  0.96397723  0.83927679  0.70175003  1.0
