# generated using pymatgen
data_GaN
_symmetry_space_group_name_H-M   P1
_cell_length_a   10.43156759
_cell_length_b   11.78236901
_cell_length_c   13.76546671
_cell_angle_alpha   87.23420789
_cell_angle_beta   79.50673139
_cell_angle_gamma   89.57596584
_symmetry_Int_Tables_number   1
_chemical_formula_structural   GaN
_chemical_formula_sum   'Ga50 N50'
_cell_volume   1661.65969643
_cell_formula_units_Z   50
loop_
 _symmetry_equiv_pos_site_id
 _symmetry_equiv_pos_as_xyz
  1  'x, y, z'
loop_
 _atom_site_type_symbol
 _atom_site_label
 _atom_site_symmetry_multiplicity
 _atom_site_fract_x
 _atom_site_fract_y
 _atom_site_fract_z
 _atom_site_occupancy
  Ga  Ga0  1  0.02413739  0.87831434  0.56452831  1.0
  Ga  Ga1  1  0.04270176  0.72092620  0.30619479  1.0
  Ga  Ga2  1  0.05308947  0.47826082  0.21470398  1.0
  Ga  Ga3  1  0.05596877  0.50751070  0.79573942  1.0
  Ga  Ga4  1  0.08250251  0.26870969  0.28033475  1.0
  Ga  Ga5  1  0.10586566  0.58510153  0.61553609  1.0
  Ga  Ga6  1  0.11434448  0.72071523  0.80617225  1.0
  Ga  Ga7  1  0.12271259  0.70699953  0.07381869  1.0
  Ga  Ga8  1  0.13511592  0.18389762  0.71887533  1.0
  Ga  Ga9  1  0.13668115  0.06678499  0.43570003  1.0
  Ga  Ga10  1  0.20206062  0.04119349  0.19412435  1.0
  Ga  Ga11  1  0.22850207  0.85939687  0.40950583  1.0
  Ga  Ga12  1  0.25707432  0.55373943  0.94667025  1.0
  Ga  Ga13  1  0.26408834  0.58054385  0.35573827  1.0
  Ga  Ga14  1  0.27486262  0.31503049  0.85718897  1.0
  Ga  Ga15  1  0.29125042  0.73805940  0.60243072  1.0
  Ga  Ga16  1  0.30133518  0.11508549  0.96002212  1.0
  Ga  Ga17  1  0.31691283  0.89977096  0.08460045  1.0
  Ga  Ga18  1  0.31825752  0.84346250  0.90168507  1.0
  Ga  Ga19  1  0.32484739  0.29212725  0.08781591  1.0
  Ga  Ga20  1  0.33246222  0.72122577  0.18811992  1.0
  Ga  Ga21  1  0.34581498  0.12675874  0.50466078  1.0
  Ga  Ga22  1  0.35177594  0.49110028  0.12115982  1.0
  Ga  Ga23  1  0.36353940  0.06292272  0.74076051  1.0
  Ga  Ga24  1  0.38807744  0.47534297  0.47355907  1.0
  Ga  Ga25  1  0.46223783  0.28421291  0.60748819  1.0
  Ga  Ga26  1  0.46409699  0.94849151  0.49251909  1.0
  Ga  Ga27  1  0.47309143  0.54559247  0.70807591  1.0
  Ga  Ga28  1  0.51102667  0.71917113  0.41396002  1.0
  Ga  Ga29  1  0.51339891  0.84500541  0.72288388  1.0
  Ga  Ga30  1  0.52899885  0.39067701  0.92789059  1.0
  Ga  Ga31  1  0.55101334  0.65112453  0.90284732  1.0
  Ga  Ga32  1  0.57037744  0.57456394  0.28483388  1.0
  Ga  Ga33  1  0.60498877  0.94561879  0.88862584  1.0
  Ga  Ga34  1  0.62947159  0.29404770  0.39094171  1.0
  Ga  Ga35  1  0.63507144  0.51603556  0.51154807  1.0
  Ga  Ga36  1  0.67930668  0.10190752  0.50224923  1.0
  Ga  Ga37  1  0.69564312  0.10091885  0.69618033  1.0
  Ga  Ga38  1  0.69564359  0.81749781  0.56981245  1.0
  Ga  Ga39  1  0.72496827  0.63101362  0.71557867  1.0
  Ga  Ga40  1  0.76285602  0.88426019  0.34634031  1.0
  Ga  Ga41  1  0.78056685  0.25316241  0.81516486  1.0
  Ga  Ga42  1  0.81764158  0.56010248  0.30861593  1.0
  Ga  Ga43  1  0.82161049  0.49820693  0.87355300  1.0
  Ga  Ga44  1  0.82453185  0.78126273  0.17147778  1.0
  Ga  Ga45  1  0.89049141  0.62675750  0.55627202  1.0
  Ga  Ga46  1  0.93583843  0.24072372  0.47062252  1.0
  Ga  Ga47  1  0.96217983  0.09188328  0.62043428  1.0
  Ga  Ga48  1  0.97122795  0.34545122  0.65646348  1.0
  Ga  Ga49  1  0.98804077  0.45209802  0.44807623  1.0
  N  N50  1  0.00818260  0.76853509  0.17619127  1.0
  N  N51  1  0.03562291  0.29828634  0.00098790  1.0
  N  N52  1  0.08623092  0.54827072  0.33839252  1.0
  N  N53  1  0.11751115  0.11299921  0.30520299  1.0
  N  N54  1  0.17720108  0.55195582  0.09868367  1.0
  N  N55  1  0.19304721  0.71585809  0.93206163  1.0
  N  N56  1  0.20868172  0.46002132  0.84988652  1.0
  N  N57  1  0.22096855  0.83157295  0.71737366  1.0
  N  N58  1  0.22565243  0.74382150  0.31903178  1.0
  N  N59  1  0.23491656  0.15657479  0.83768615  1.0
  N  N60  1  0.23810943  0.15323313  0.09125603  1.0
  N  N61  1  0.25572432  0.33163956  0.35095360  1.0
  N  N62  1  0.29396448  0.30608318  0.42241740  1.0
  N  N63  1  0.31425878  0.17697231  0.64256986  1.0
  N  N64  1  0.31561639  0.89371768  0.75623561  1.0
  N  N65  1  0.37202752  0.81487625  0.47208626  1.0
  N  N66  1  0.39729287  0.27832950  0.94094091  1.0
  N  N67  1  0.40480953  0.57374907  0.22676461  1.0
  N  N68  1  0.44028306  0.53263604  0.97416224  1.0
  N  N69  1  0.46452395  0.44722869  0.59413379  1.0
  N  N70  1  0.46826596  0.69462387  0.62807801  1.0
  N  N71  1  0.49857047  0.79716895  0.86671040  1.0
  N  N72  1  0.50867429  0.91524202  0.10114761  1.0
  N  N73  1  0.52099584  0.20012691  0.49179187  1.0
  N  N74  1  0.52308236  0.92689177  0.18522535  1.0
  N  N75  1  0.52903331  0.28229104  0.11823391  1.0
  N  N76  1  0.53768510  0.93611886  0.26668491  1.0
  N  N77  1  0.53988751  0.01717143  0.75484580  1.0
  N  N78  1  0.55236413  0.25562917  0.19648980  1.0
  N  N79  1  0.56888680  0.45093499  0.39207516  1.0
  N  N80  1  0.57159928  0.68085635  0.54282834  1.0
  N  N81  1  0.57669222  0.22189462  0.27362294  1.0
  N  N82  1  0.64627981  0.27770423  0.66512164  1.0
  N  N83  1  0.65603052  0.94135984  0.47034457  1.0
  N  N84  1  0.68297952  0.52957751  0.10525366  1.0
  N  N85  1  0.70535032  0.37204842  0.89327615  1.0
  N  N86  1  0.71769195  0.10989395  0.02773165  1.0
  N  N87  1  0.72064148  0.35383758  0.64059299  1.0
  N  N88  1  0.72909849  0.63480872  0.85094761  1.0
  N  N89  1  0.76213380  0.06578586  0.08686646  1.0
  N  N90  1  0.77426384  0.56894258  0.06070463  1.0
  N  N91  1  0.78290650  0.21622568  0.42193318  1.0
  N  N92  1  0.81279483  0.32299851  0.17724222  1.0
  N  N93  1  0.81774691  0.53712757  0.45775635  1.0
  N  N94  1  0.86771083  0.24413962  0.19163778  1.0
  N  N95  1  0.88796749  0.78724473  0.49870231  1.0
  N  N96  1  0.90744442  0.95491955  0.85809366  1.0
  N  N97  1  0.90775198  0.80181414  0.39787452  1.0
  N  N98  1  0.95813579  0.87542712  0.87816303  1.0
  N  N99  1  0.96064565  0.25568006  0.96714683  1.0
