# generated using pymatgen
data_GaN
_symmetry_space_group_name_H-M   P1
_cell_length_a   10.97768528
_cell_length_b   11.17250858
_cell_length_c   11.45200443
_cell_angle_alpha   87.31410130
_cell_angle_beta   85.75538597
_cell_angle_gamma   90.43780732
_symmetry_Int_Tables_number   1
_chemical_formula_structural   GaN
_chemical_formula_sum   'Ga50 N50'
_cell_volume   1399.09036857
_cell_formula_units_Z   50
loop_
 _symmetry_equiv_pos_site_id
 _symmetry_equiv_pos_as_xyz
  1  'x, y, z'
loop_
 _atom_site_type_symbol
 _atom_site_label
 _atom_site_symmetry_multiplicity
 _atom_site_fract_x
 _atom_site_fract_y
 _atom_site_fract_z
 _atom_site_occupancy
  Ga  Ga0  1  0.00424210  0.68557523  0.74698589  1.0
  Ga  Ga1  1  0.02959256  0.91213354  0.57201650  1.0
  Ga  Ga2  1  0.04341262  0.18741767  0.14402737  1.0
  Ga  Ga3  1  0.06579006  0.88811667  0.11652135  1.0
  Ga  Ga4  1  0.12087973  0.24559302  0.42715452  1.0
  Ga  Ga5  1  0.14157433  0.33135578  0.71298895  1.0
  Ga  Ga6  1  0.17731028  0.62211699  0.18422085  1.0
  Ga  Ga7  1  0.18489690  0.33665856  0.99349766  1.0
  Ga  Ga8  1  0.19025068  0.08098144  0.89572873  1.0
  Ga  Ga9  1  0.23202977  0.06418161  0.63567450  1.0
  Ga  Ga10  1  0.24071947  0.77415660  0.51815114  1.0
  Ga  Ga11  1  0.25555641  0.52972848  0.66556518  1.0
  Ga  Ga12  1  0.25832455  0.79567056  0.78933139  1.0
  Ga  Ga13  1  0.25858406  0.50854462  0.35208860  1.0
  Ga  Ga14  1  0.26659844  0.07320406  0.12959021  1.0
  Ga  Ga15  1  0.28803540  0.05631064  0.38987195  1.0
  Ga  Ga16  1  0.31871911  0.30020580  0.26440072  1.0
  Ga  Ga17  1  0.31998657  0.75331597  0.98412213  1.0
  Ga  Ga18  1  0.33261304  0.87407870  0.22242150  1.0
  Ga  Ga19  1  0.37226469  0.32041131  0.50815449  1.0
  Ga  Ga20  1  0.40514330  0.30156250  0.80777039  1.0
  Ga  Ga21  1  0.45241278  0.10224594  0.66890882  1.0
  Ga  Ga22  1  0.46794965  0.50655371  0.02439795  1.0
  Ga  Ga23  1  0.48726304  0.55486198  0.73413781  1.0
  Ga  Ga24  1  0.48771193  0.56253975  0.46728490  1.0
  Ga  Ga25  1  0.48824443  0.95578515  0.47482003  1.0
  Ga  Ga26  1  0.51916572  0.15643646  0.31288247  1.0
  Ga  Ga27  1  0.53391538  0.90646942  0.11112038  1.0
  Ga  Ga28  1  0.55474704  0.39802945  0.32660401  1.0
  Ga  Ga29  1  0.57694618  0.65582152  0.20026877  1.0
  Ga  Ga30  1  0.59663442  0.85749298  0.82519241  1.0
  Ga  Ga31  1  0.61495094  0.75784157  0.42065554  1.0
  Ga  Ga32  1  0.64706011  0.27486515  0.55705759  1.0
  Ga  Ga33  1  0.65251650  0.96310681  0.28674945  1.0
  Ga  Ga34  1  0.65658171  0.14880178  0.88455651  1.0
  Ga  Ga35  1  0.67721662  0.36992203  0.83040509  1.0
  Ga  Ga36  1  0.68053810  0.03662348  0.64211271  1.0
  Ga  Ga37  1  0.70454057  0.61455305  0.91466715  1.0
  Ga  Ga38  1  0.71716401  0.64746964  0.65908930  1.0
  Ga  Ga39  1  0.74109190  0.44197405  0.11761684  1.0
  Ga  Ga40  1  0.81197724  0.91637644  0.52090023  1.0
  Ga  Ga41  1  0.82469359  0.18568354  0.38427826  1.0
  Ga  Ga42  1  0.86561121  0.65364630  0.20840542  1.0
  Ga  Ga43  1  0.87026301  0.42948478  0.63755159  1.0
  Ga  Ga44  1  0.88807742  0.97912706  0.77939838  1.0
  Ga  Ga45  1  0.90502680  0.85995699  0.29368625  1.0
  Ga  Ga46  1  0.93497500  0.18152251  0.67830167  1.0
  Ga  Ga47  1  0.94269684  0.40977884  0.90363098  1.0
  Ga  Ga48  1  0.95121860  0.40815103  0.18569936  1.0
  Ga  Ga49  1  0.97499546  0.67422286  0.48571854  1.0
  N  N50  1  0.00385142  0.47801140  0.47869708  1.0
  N  N51  1  0.01053092  0.32939349  0.03792988  1.0
  N  N52  1  0.01347602  0.56816930  0.18716507  1.0
  N  N53  1  0.04311450  0.56101937  0.87339778  1.0
  N  N54  1  0.04392423  0.97007077  0.35429251  1.0
  N  N55  1  0.05470560  0.90798358  0.75400861  1.0
  N  N56  1  0.09225267  0.42920441  0.43747316  1.0
  N  N57  1  0.09902850  0.04993880  0.30726605  1.0
  N  N58  1  0.10091177  0.05029342  0.05264195  1.0
  N  N59  1  0.11086900  0.19447548  0.60117424  1.0
  N  N60  1  0.14070826  0.59181823  0.92260933  1.0
  N  N61  1  0.16873918  0.95894506  0.77629887  1.0
  N  N62  1  0.18478511  0.69358671  0.67445949  1.0
  N  N63  1  0.20119505  0.94531726  0.51824167  1.0
  N  N64  1  0.21398050  0.78968197  0.12921118  1.0
  N  N65  1  0.21466275  0.51400851  0.96823713  1.0
  N  N66  1  0.22856892  0.25603390  0.84758513  1.0
  N  N67  1  0.23602321  0.24447161  0.13173738  1.0
  N  N68  1  0.29888228  0.57036844  0.03819573  1.0
  N  N69  1  0.32264563  0.49701421  0.50716716  1.0
  N  N70  1  0.33872317  0.03000327  0.97026994  1.0
  N  N71  1  0.35071484  0.76278590  0.36261594  1.0
  N  N72  1  0.40339110  0.66750233  0.32452735  1.0
  N  N73  1  0.42317891  0.82905711  0.59809991  1.0
  N  N74  1  0.43846511  0.81520578  0.70342724  1.0
  N  N75  1  0.44755384  0.07610079  0.94490335  1.0
  N  N76  1  0.47793220  0.14284568  0.84379572  1.0
  N  N77  1  0.48314558  0.28435609  0.63942932  1.0
  N  N78  1  0.50105676  0.42788342  0.87355484  1.0
  N  N79  1  0.50980259  0.78303866  0.97296578  1.0
  N  N80  1  0.53895993  0.05986716  0.01203675  1.0
  N  N81  1  0.56312849  0.66901309  0.01164900  1.0
  N  N82  1  0.56949641  0.47440663  0.16316572  1.0
  N  N83  1  0.65044136  0.25390503  0.38387732  1.0
  N  N84  1  0.70347704  0.00351467  0.80927845  1.0
  N  N85  1  0.70822269  0.77754923  0.54844297  1.0
  N  N86  1  0.73655084  0.21837138  0.09187170  1.0
  N  N87  1  0.75295431  0.75738897  0.82873638  1.0
  N  N88  1  0.75452911  0.49611711  0.44073469  1.0
  N  N89  1  0.77219956  0.46279545  0.94313589  1.0
  N  N90  1  0.77599124  0.89581288  0.03371513  1.0
  N  N91  1  0.79504653  0.14157924  0.12261472  1.0
  N  N92  1  0.80615487  0.99841710  0.35965244  1.0
  N  N93  1  0.80820552  0.57067847  0.38657244  1.0
  N  N94  1  0.82004310  0.23839014  0.55778487  1.0
  N  N95  1  0.84949971  0.82467751  0.04237495  1.0
  N  N96  1  0.85961474  0.79727099  0.79056453  1.0
  N  N97  1  0.89413842  0.60644334  0.64276438  1.0
  N  N98  1  0.96305577  0.33861147  0.75205687  1.0
  N  N99  1  0.97093147  0.25566821  0.29083755  1.0
