# generated using pymatgen
data_GaN
_symmetry_space_group_name_H-M   P1
_cell_length_a   11.34123478
_cell_length_b   11.80877215
_cell_length_c   11.86207953
_cell_angle_alpha   88.56160940
_cell_angle_beta   86.23211215
_cell_angle_gamma   88.40086529
_symmetry_Int_Tables_number   1
_chemical_formula_structural   GaN
_chemical_formula_sum   'Ga50 N50'
_cell_volume   1584.15903598
_cell_formula_units_Z   50
loop_
 _symmetry_equiv_pos_site_id
 _symmetry_equiv_pos_as_xyz
  1  'x, y, z'
loop_
 _atom_site_type_symbol
 _atom_site_label
 _atom_site_symmetry_multiplicity
 _atom_site_fract_x
 _atom_site_fract_y
 _atom_site_fract_z
 _atom_site_occupancy
  Ga  Ga0  1  0.01439900  0.58464756  0.89217916  1.0
  Ga  Ga1  1  0.01567529  0.73138691  0.40349042  1.0
  Ga  Ga2  1  0.08586029  0.33390317  0.88327923  1.0
  Ga  Ga3  1  0.11761590  0.67624971  0.15075337  1.0
  Ga  Ga4  1  0.11866476  0.53019203  0.33872125  1.0
  Ga  Ga5  1  0.11952403  0.16193805  0.09494774  1.0
  Ga  Ga6  1  0.12168786  0.45331408  0.09405943  1.0
  Ga  Ga7  1  0.17035249  0.93333929  0.59071810  1.0
  Ga  Ga8  1  0.19557270  0.09046191  0.37491662  1.0
  Ga  Ga9  1  0.21369033  0.77270030  0.79770779  1.0
  Ga  Ga10  1  0.22081049  0.05632442  0.83706135  1.0
  Ga  Ga11  1  0.22097070  0.93496935  0.08009617  1.0
  Ga  Ga12  1  0.29709166  0.79640743  0.34090947  1.0
  Ga  Ga13  1  0.30954655  0.53808436  0.88695911  1.0
  Ga  Ga14  1  0.34056278  0.32576765  0.30718798  1.0
  Ga  Ga15  1  0.38115608  0.12139227  0.20927314  1.0
  Ga  Ga16  1  0.43578070  0.89797975  0.53960288  1.0
  Ga  Ga17  1  0.43652240  0.00369287  0.71180751  1.0
  Ga  Ga18  1  0.43672288  0.27754143  0.84191896  1.0
  Ga  Ga19  1  0.43805784  0.90191206  0.19078392  1.0
  Ga  Ga20  1  0.44791922  0.78463220  0.92716360  1.0
  Ga  Ga21  1  0.46361797  0.67730052  0.42895872  1.0
  Ga  Ga22  1  0.48123013  0.04153447  0.93926253  1.0
  Ga  Ga23  1  0.49912986  0.63402345  0.69350109  1.0
  Ga  Ga24  1  0.55490803  0.48841335  0.39930389  1.0
  Ga  Ga25  1  0.57346420  0.35299338  0.16362063  1.0
  Ga  Ga26  1  0.58322913  0.21520803  0.00795236  1.0
  Ga  Ga27  1  0.62399580  0.39436737  0.67590699  1.0
  Ga  Ga28  1  0.63518110  0.76481995  0.22544056  1.0
  Ga  Ga29  1  0.66451839  0.14683850  0.75468372  1.0
  Ga  Ga30  1  0.67949848  0.41457321  0.89315771  1.0
  Ga  Ga31  1  0.69034641  0.87301168  0.76689542  1.0
  Ga  Ga32  1  0.70176149  0.75383989  0.53181057  1.0
  Ga  Ga33  1  0.71496898  0.01489170  0.51167380  1.0
  Ga  Ga34  1  0.72036289  0.50416620  0.08526362  1.0
  Ga  Ga35  1  0.75509167  0.60930058  0.77396137  1.0
  Ga  Ga36  1  0.75680353  0.33085282  0.31578403  1.0
  Ga  Ga37  1  0.76875337  0.23355162  0.52023171  1.0
  Ga  Ga38  1  0.81029298  0.61136370  0.30623310  1.0
  Ga  Ga39  1  0.81070057  0.19764015  0.90912774  1.0
  Ga  Ga40  1  0.82408714  0.50331989  0.51028902  1.0
  Ga  Ga41  1  0.83948896  0.88854056  0.35018806  1.0
  Ga  Ga42  1  0.87043205  0.32762060  0.07409928  1.0
  Ga  Ga43  1  0.88388508  0.36867644  0.75284144  1.0
  Ga  Ga44  1  0.89821241  0.68705820  0.05457241  1.0
  Ga  Ga45  1  0.92753061  0.82506705  0.84730542  1.0
  Ga  Ga46  1  0.93996841  0.89515763  0.62871992  1.0
  Ga  Ga47  1  0.96303896  0.00755684  0.95308018  1.0
  Ga  Ga48  1  0.96649687  0.65145885  0.65862867  1.0
  Ga  Ga49  1  0.98449569  0.86597297  0.14317182  1.0
  N  N50  1  0.02429972  0.76802758  0.55530856  1.0
  N  N51  1  0.04633368  0.27218277  0.31517448  1.0
  N  N52  1  0.04700934  0.30681787  0.06158582  1.0
  N  N53  1  0.05606143  0.71647438  0.79502639  1.0
  N  N54  1  0.06930981  0.35753265  0.59350538  1.0
  N  N55  1  0.08344844  0.11040718  0.72988260  1.0
  N  N56  1  0.11617374  0.28100971  0.55791573  1.0
  N  N57  1  0.12955399  0.04581919  0.97569916  1.0
  N  N58  1  0.14735275  0.48443544  0.92744475  1.0
  N  N59  1  0.16031079  0.69938138  0.31082338  1.0
  N  N60  1  0.19538310  0.59032815  0.55326556  1.0
  N  N61  1  0.20112394  0.75366859  0.02128644  1.0
  N  N62  1  0.21216311  0.40776230  0.35715099  1.0
  N  N63  1  0.21641187  0.07211739  0.18882765  1.0
  N  N64  1  0.25391152  0.92263615  0.74077381  1.0
  N  N65  1  0.27813010  0.63921563  0.56174793  1.0
  N  N66  1  0.28132569  0.71344710  0.94519858  1.0
  N  N67  1  0.28737965  0.90409915  0.46664026  1.0
  N  N68  1  0.29953308  0.37157543  0.11061665  1.0
  N  N69  1  0.30610277  0.37705487  0.67243425  1.0
  N  N70  1  0.34732672  0.40460542  0.58829062  1.0
  N  N71  1  0.36016154  0.60550428  0.15491153  1.0
  N  N72  1  0.37330930  0.12043525  0.81857357  1.0
  N  N73  1  0.37987572  0.39692255  0.04955099  1.0
  N  N74  1  0.40031314  0.91867576  0.02451561  1.0
  N  N75  1  0.41758573  0.17324338  0.51990134  1.0
  N  N76  1  0.45691262  0.60163223  0.16817361  1.0
  N  N77  1  0.50065044  0.37468210  0.30768651  1.0
  N  N78  1  0.50459650  0.21627022  0.51606058  1.0
  N  N79  1  0.52574097  0.75446734  0.55721929  1.0
  N  N80  1  0.58103312  0.99328908  0.79901930  1.0
  N  N81  1  0.63727136  0.04340832  0.28668041  1.0
  N  N82  1  0.63861517  0.13589031  0.26150421  1.0
  N  N83  1  0.71241282  0.96078653  0.02528550  1.0
  N  N84  1  0.72697501  0.48412293  0.38051114  1.0
  N  N85  1  0.73205718  0.90791488  0.10307407  1.0
  N  N86  1  0.73446687  0.75637967  0.36337662  1.0
  N  N87  1  0.75763992  0.64512078  0.15407147  1.0
  N  N88  1  0.75950026  0.89042103  0.61083573  1.0
  N  N89  1  0.77272793  0.75666008  0.84200802  1.0
  N  N90  1  0.79061627  0.63316037  0.60560108  1.0
  N  N91  1  0.80302685  0.36715708  0.60798531  1.0
  N  N92  1  0.87732583  0.10599668  0.24895737  1.0
  N  N93  1  0.91960308  0.52948003  0.77176242  1.0
  N  N94  1  0.93390491  0.13977838  0.52235570  1.0
  N  N95  1  0.95030486  0.09590833  0.17939162  1.0
  N  N96  1  0.95417451  0.57539311  0.38863629  1.0
  N  N97  1  0.96198658  0.31623382  0.34864725  1.0
  N  N98  1  0.98225659  0.06302076  0.48003183  1.0
  N  N99  1  0.98393754  0.09806205  0.75148971  1.0
