# generated using pymatgen
data_GaN
_symmetry_space_group_name_H-M   P1
_cell_length_a   10.86906260
_cell_length_b   11.76560095
_cell_length_c   12.03843916
_cell_angle_alpha   89.85494560
_cell_angle_beta   87.74179565
_cell_angle_gamma   90.72056751
_symmetry_Int_Tables_number   1
_chemical_formula_structural   GaN
_chemical_formula_sum   'Ga50 N50'
_cell_volume   1538.16401064
_cell_formula_units_Z   50
loop_
 _symmetry_equiv_pos_site_id
 _symmetry_equiv_pos_as_xyz
  1  'x, y, z'
loop_
 _atom_site_type_symbol
 _atom_site_label
 _atom_site_symmetry_multiplicity
 _atom_site_fract_x
 _atom_site_fract_y
 _atom_site_fract_z
 _atom_site_occupancy
  Ga  Ga0  1  0.01300218  0.75657877  0.74543296  1.0
  Ga  Ga1  1  0.01863408  0.09023521  0.34300180  1.0
  Ga  Ga2  1  0.01982186  0.21936052  0.87080762  1.0
  Ga  Ga3  1  0.03289506  0.10901288  0.05695264  1.0
  Ga  Ga4  1  0.12056628  0.28029280  0.21421469  1.0
  Ga  Ga5  1  0.13554796  0.48783842  0.22593519  1.0
  Ga  Ga6  1  0.14102343  0.26545274  0.48358574  1.0
  Ga  Ga7  1  0.14845307  0.09713091  0.69882685  1.0
  Ga  Ga8  1  0.16055743  0.96539263  0.89081630  1.0
  Ga  Ga9  1  0.18335582  0.72149790  0.95638441  1.0
  Ga  Ga10  1  0.26714712  0.44638344  0.44457448  1.0
  Ga  Ga11  1  0.27934383  0.56683829  0.74289270  1.0
  Ga  Ga12  1  0.29976659  0.18585723  0.95685431  1.0
  Ga  Ga13  1  0.30483434  0.13692805  0.22947185  1.0
  Ga  Ga14  1  0.30629965  0.84422710  0.70977978  1.0
  Ga  Ga15  1  0.31019837  0.32934407  0.72149159  1.0
  Ga  Ga16  1  0.37084279  0.08811214  0.57721929  1.0
  Ga  Ga17  1  0.37372148  0.61510571  0.51966060  1.0
  Ga  Ga18  1  0.37956248  0.34993861  0.26061807  1.0
  Ga  Ga19  1  0.44797613  0.59826729  0.26006156  1.0
  Ga  Ga20  1  0.47311845  0.33408303  0.57672954  1.0
  Ga  Ga21  1  0.51629076  0.96098168  0.42605459  1.0
  Ga  Ga22  1  0.52843527  0.08952801  0.25120424  1.0
  Ga  Ga23  1  0.53344375  0.79443128  0.97930513  1.0
  Ga  Ga24  1  0.53509028  0.36883773  0.88238408  1.0
  Ga  Ga25  1  0.54247387  0.69862421  0.73344138  1.0
  Ga  Ga26  1  0.55904747  0.34170445  0.11377947  1.0
  Ga  Ga27  1  0.58119472  0.43871186  0.39161021  1.0
  Ga  Ga28  1  0.59992045  0.01506488  0.98438083  1.0
  Ga  Ga29  1  0.60175827  0.90166805  0.76054245  1.0
  Ga  Ga30  1  0.65431685  0.20763764  0.48026623  1.0
  Ga  Ga31  1  0.65500405  0.69692372  0.42850849  1.0
  Ga  Ga32  1  0.66315081  0.53897061  0.20161528  1.0
  Ga  Ga33  1  0.67033897  0.12169347  0.69368771  1.0
  Ga  Ga34  1  0.67484882  0.44764916  0.71382094  1.0
  Ga  Ga35  1  0.69957219  0.52008029  0.99455641  1.0
  Ga  Ga36  1  0.72362239  0.74708744  0.11495354  1.0
  Ga  Ga37  1  0.73650873  0.90197198  0.57110124  1.0
  Ga  Ga38  1  0.74286169  0.12657778  0.12913716  1.0
  Ga  Ga39  1  0.77912336  0.68077258  0.84357690  1.0
  Ga  Ga40  1  0.81807660  0.45582383  0.52360334  1.0
  Ga  Ga41  1  0.82539156  0.70374205  0.60409562  1.0
  Ga  Ga42  1  0.84578967  0.07709864  0.47813962  1.0
  Ga  Ga43  1  0.86374912  0.55039886  0.30434235  1.0
  Ga  Ga44  1  0.86599936  0.31413470  0.36012027  1.0
  Ga  Ga45  1  0.87411004  0.23301106  0.65173475  1.0
  Ga  Ga46  1  0.87469385  0.99382606  0.82887694  1.0
  Ga  Ga47  1  0.91634422  0.83176446  0.00368918  1.0
  Ga  Ga48  1  0.94868621  0.43232803  0.81612934  1.0
  Ga  Ga49  1  0.97130590  0.62685003  0.04690305  1.0
  N  N50  1  0.00075118  0.58382547  0.19980346  1.0
  N  N51  1  0.03682725  0.88051832  0.56699051  1.0
  N  N52  1  0.04805166  0.59865827  0.52592741  1.0
  N  N53  1  0.08104023  0.87719628  0.48127007  1.0
  N  N54  1  0.10675177  0.64590538  0.46203062  1.0
  N  N55  1  0.16417189  0.48238665  0.95793508  1.0
  N  N56  1  0.16572891  0.81374113  0.81572802  1.0
  N  N57  1  0.16710669  0.86354401  0.20347308  1.0
  N  N58  1  0.17625919  0.12804230  0.85837353  1.0
  N  N59  1  0.17702972  0.17208920  0.34300265  1.0
  N  N60  1  0.18696783  0.79279343  0.26169263  1.0
  N  N61  1  0.19615246  0.16942992  0.10032341  1.0
  N  N62  1  0.22534280  0.43753362  0.01729672  1.0
  N  N63  1  0.23467150  0.21588292  0.61408470  1.0
  N  N64  1  0.26057981  0.98029507  0.63953623  1.0
  N  N65  1  0.29828707  0.50743147  0.27738617  1.0
  N  N66  1  0.36632000  0.97922163  0.88894255  1.0
  N  N67  1  0.37540928  0.30568401  0.86661438  1.0
  N  N68  1  0.38117662  0.68528746  0.94890085  1.0
  N  N69  1  0.38231296  0.70015081  0.65528364  1.0
  N  N70  1  0.40711169  0.63410940  0.86210415  1.0
  N  N71  1  0.42215002  0.05385116  0.95088695  1.0
  N  N72  1  0.42354430  0.35382612  0.41937572  1.0
  N  N73  1  0.42433284  0.91090320  0.82088454  1.0
  N  N74  1  0.44302901  0.86332972  0.26147229  1.0
  N  N75  1  0.45417420  0.79256736  0.19674987  1.0
  N  N76  1  0.51218028  0.60758078  0.41465705  1.0
  N  N77  1  0.52378146  0.16979009  0.60159238  1.0
  N  N78  1  0.63669580  0.85163057  0.45039093  1.0
  N  N79  1  0.64391541  0.22957496  0.23098205  1.0
  N  N80  1  0.64996427  0.38634771  0.53548791  1.0
  N  N81  1  0.65759885  0.67890826  0.96607335  1.0
  N  N82  1  0.67826552  0.28066439  0.32903355  1.0
  N  N83  1  0.69300136  0.02105037  0.83601219  1.0
  N  N84  1  0.69777057  0.61778708  0.70829512  1.0
  N  N85  1  0.73375306  0.26131707  0.88164918  1.0
  N  N86  1  0.79062526  0.20906162  0.94148230  1.0
  N  N87  1  0.80595673  0.61288518  0.46278677  1.0
  N  N88  1  0.84334256  0.35416367  0.09300697  1.0
  N  N89  1  0.85321311  0.40358522  0.67994459  1.0
  N  N90  1  0.87634830  0.55353315  0.91581282  1.0
  N  N91  1  0.87958291  0.82200820  0.84041769  1.0
  N  N92  1  0.89083324  0.81558048  0.32378665  1.0
  N  N93  1  0.90429108  0.87666685  0.25283642  1.0
  N  N94  1  0.91034746  0.13239727  0.17227099  1.0
  N  N95  1  0.94124548  0.36988714  0.06199781  1.0
  N  N96  1  0.95125402  0.21814382  0.24956241  1.0
  N  N97  1  0.95262584  0.23166211  0.49911766  1.0
  N  N98  1  0.96597755  0.11696282  0.74122832  1.0
  N  N99  1  0.99849341  0.97415361  0.97183396  1.0
