# generated using pymatgen
data_GaN
_symmetry_space_group_name_H-M   P1
_cell_length_a   11.66602998
_cell_length_b   11.80235746
_cell_length_c   11.82093109
_cell_angle_alpha   89.54170257
_cell_angle_beta   87.65532989
_cell_angle_gamma   90.89799036
_symmetry_Int_Tables_number   1
_chemical_formula_structural   GaN
_chemical_formula_sum   'Ga50 N50'
_cell_volume   1625.96132836
_cell_formula_units_Z   50
loop_
 _symmetry_equiv_pos_site_id
 _symmetry_equiv_pos_as_xyz
  1  'x, y, z'
loop_
 _atom_site_type_symbol
 _atom_site_label
 _atom_site_symmetry_multiplicity
 _atom_site_fract_x
 _atom_site_fract_y
 _atom_site_fract_z
 _atom_site_occupancy
  Ga  Ga0  1  0.02594113  0.57065001  0.17250086  1.0
  Ga  Ga1  1  0.03395325  0.59374760  0.53766018  1.0
  Ga  Ga2  1  0.07373150  0.98119480  0.28006485  1.0
  Ga  Ga3  1  0.10484252  0.86594362  0.84578490  1.0
  Ga  Ga4  1  0.10535640  0.39830104  0.33077502  1.0
  Ga  Ga5  1  0.11139849  0.85546796  0.55174602  1.0
  Ga  Ga6  1  0.12187507  0.11356829  0.50689200  1.0
  Ga  Ga7  1  0.13896556  0.72697078  0.28815059  1.0
  Ga  Ga8  1  0.13992339  0.68078764  0.95711114  1.0
  Ga  Ga9  1  0.15979222  0.32353085  0.56790427  1.0
  Ga  Ga10  1  0.21192820  0.68752842  0.71689091  1.0
  Ga  Ga11  1  0.23152025  0.14656799  0.31168705  1.0
  Ga  Ga12  1  0.25871522  0.55796536  0.17041581  1.0
  Ga  Ga13  1  0.27907269  0.39914859  0.97284183  1.0
  Ga  Ga14  1  0.28674464  0.34722348  0.21878152  1.0
  Ga  Ga15  1  0.29029134  0.01738322  0.67633674  1.0
  Ga  Ga16  1  0.34629109  0.97404164  0.41373670  1.0
  Ga  Ga17  1  0.36627176  0.62702346  0.89077325  1.0
  Ga  Ga18  1  0.39133552  0.90680243  0.87918579  1.0
  Ga  Ga19  1  0.40455783  0.30182779  0.60936024  1.0
  Ga  Ga20  1  0.41164274  0.71439694  0.36866510  1.0
  Ga  Ga21  1  0.41185473  0.76436039  0.11693392  1.0
  Ga  Ga22  1  0.41724762  0.19810690  0.83797102  1.0
  Ga  Ga23  1  0.42799093  0.78755807  0.61922141  1.0
  Ga  Ga24  1  0.44810424  0.20815849  0.08006271  1.0
  Ga  Ga25  1  0.47309173  0.44172622  0.79515040  1.0
  Ga  Ga26  1  0.54077796  0.07571485  0.60906817  1.0
  Ga  Ga27  1  0.57741840  0.66319320  0.01922917  1.0
  Ga  Ga28  1  0.58761908  0.91643831  0.75663759  1.0
  Ga  Ga29  1  0.58848004  0.37819272  0.27512885  1.0
  Ga  Ga30  1  0.59038920  0.87519990  0.42073198  1.0
  Ga  Ga31  1  0.61005846  0.58430737  0.37237500  1.0
  Ga  Ga32  1  0.63207312  0.25655370  0.51370805  1.0
  Ga  Ga33  1  0.63304151  0.15544165  0.29055560  1.0
  Ga  Ga34  1  0.64415582  0.65296777  0.80961731  1.0
  Ga  Ga35  1  0.67788195  0.73887332  0.55637157  1.0
  Ga  Ga36  1  0.68542970  0.46999453  0.62838225  1.0
  Ga  Ga37  1  0.69218409  0.96064830  0.14893881  1.0
  Ga  Ga38  1  0.71013040  0.74544491  0.23924197  1.0
  Ga  Ga39  1  0.78113455  0.15755503  0.08843311  1.0
  Ga  Ga40  1  0.78817628  0.93643448  0.67231452  1.0
  Ga  Ga41  1  0.80300491  0.83118579  0.93254080  1.0
  Ga  Ga42  1  0.81353253  0.20494395  0.70450962  1.0
  Ga  Ga43  1  0.85449198  0.35813456  0.26445269  1.0
  Ga  Ga44  1  0.88067505  0.57518343  0.93003638  1.0
  Ga  Ga45  1  0.88149576  0.37974575  0.47040956  1.0
  Ga  Ga46  1  0.90240574  0.83745416  0.42813362  1.0
  Ga  Ga47  1  0.90466980  0.06288044  0.90927039  1.0
  Ga  Ga48  1  0.92211168  0.71365032  0.69031622  1.0
  Ga  Ga49  1  0.96152289  0.81638520  0.09044489  1.0
  N  N50  1  0.00190649  0.02048791  0.58920797  1.0
  N  N51  1  0.03969765  0.39083602  0.75279116  1.0
  N  N52  1  0.04234428  0.19796281  0.06139702  1.0
  N  N53  1  0.04760322  0.42696986  0.49105071  1.0
  N  N54  1  0.05075278  0.46516816  0.81164561  1.0
  N  N55  1  0.06727193  0.84497559  0.20361749  1.0
  N  N56  1  0.07311316  0.79518075  0.70125573  1.0
  N  N57  1  0.07861136  0.28634567  0.04581563  1.0
  N  N58  1  0.09632432  0.16128453  0.79365807  1.0
  N  N59  1  0.10174700  0.72609136  0.45115692  1.0
  N  N60  1  0.17591760  0.19870646  0.83145225  1.0
  N  N61  1  0.22296480  0.98014425  0.53697665  1.0
  N  N62  1  0.23301727  0.05104503  0.03282184  1.0
  N  N63  1  0.24324284  0.56081294  0.00541219  1.0
  N  N64  1  0.25049821  0.94627853  0.81357619  1.0
  N  N65  1  0.25525226  0.98711219  0.09959845  1.0
  N  N66  1  0.31167096  0.70259075  0.23886388  1.0
  N  N67  1  0.32476595  0.51189629  0.54250570  1.0
  N  N68  1  0.33959113  0.53659741  0.44971541  1.0
  N  N69  1  0.35636491  0.77335809  0.96711346  1.0
  N  N70  1  0.38555755  0.27171766  0.42780321  1.0
  N  N71  1  0.39436844  0.14569311  0.67980156  1.0
  N  N72  1  0.40450605  0.33536631  0.34999786  1.0
  N  N73  1  0.47934466  0.96097425  0.50863120  1.0
  N  N74  1  0.49355578  0.97850643  0.99889764  1.0
  N  N75  1  0.49888052  0.39527128  0.01475708  1.0
  N  N76  1  0.53223765  0.45808146  0.08187275  1.0
  N  N77  1  0.57930079  0.75824090  0.69603104  1.0
  N  N78  1  0.59825383  0.95297848  0.99703212  1.0
  N  N79  1  0.60698064  0.87314356  0.26148423  1.0
  N  N80  1  0.62831174  0.49491536  0.77421643  1.0
  N  N81  1  0.64612241  0.21895025  0.86316305  1.0
  N  N82  1  0.66077961  0.91703049  0.90739591  1.0
  N  N83  1  0.66223093  0.21314298  0.95787327  1.0
  N  N84  1  0.67415555  0.58073363  0.51616776  1.0
  N  N85  1  0.74249215  0.26725308  0.20117594  1.0
  N  N86  1  0.74249935  0.54506790  0.06811290  1.0
  N  N87  1  0.75425533  0.51428039  0.16000757  1.0
  N  N88  1  0.77141972  0.33370330  0.59042147  1.0
  N  N89  1  0.79201893  0.82420441  0.10393970  1.0
  N  N90  1  0.81488349  0.69946678  0.83167461  1.0
  N  N91  1  0.83341040  0.80360246  0.58402173  1.0
  N  N92  1  0.83897695  0.08040578  0.36927326  1.0
  N  N93  1  0.87317287  0.13894930  0.43607921  1.0
  N  N94  1  0.87844256  0.57789809  0.41863738  1.0
  N  N95  1  0.88662158  0.64154532  0.34267693  1.0
  N  N96  1  0.92278117  0.04429650  0.65737486  1.0
  N  N97  1  0.96374754  0.91028176  0.93954486  1.0
  N  N98  1  0.98935268  0.65593344  0.03972857  1.0
  N  N99  1  0.99544808  0.42028717  0.21392122  1.0
