# generated using pymatgen
data_GaN
_symmetry_space_group_name_H-M   P1
_cell_length_a   11.53062086
_cell_length_b   11.76147884
_cell_length_c   11.58578427
_cell_angle_alpha   92.07933052
_cell_angle_beta   93.15178437
_cell_angle_gamma   90.28501385
_symmetry_Int_Tables_number   1
_chemical_formula_structural   GaN
_chemical_formula_sum   'Ga50 N50'
_cell_volume   1567.78315715
_cell_formula_units_Z   50
loop_
 _symmetry_equiv_pos_site_id
 _symmetry_equiv_pos_as_xyz
  1  'x, y, z'
loop_
 _atom_site_type_symbol
 _atom_site_label
 _atom_site_symmetry_multiplicity
 _atom_site_fract_x
 _atom_site_fract_y
 _atom_site_fract_z
 _atom_site_occupancy
  Ga  Ga0  1  0.01254793  0.25373139  0.56826413  1.0
  Ga  Ga1  1  0.03178169  0.70921185  0.10908889  1.0
  Ga  Ga2  1  0.07465458  0.91974992  0.14634446  1.0
  Ga  Ga3  1  0.08311820  0.33049629  0.28322405  1.0
  Ga  Ga4  1  0.09064142  0.52673106  0.95975325  1.0
  Ga  Ga5  1  0.09760034  0.79790764  0.87251757  1.0
  Ga  Ga6  1  0.11197508  0.42839709  0.48003189  1.0
  Ga  Ga7  1  0.11965464  0.72210316  0.62677340  1.0
  Ga  Ga8  1  0.15067365  0.29408061  0.82861282  1.0
  Ga  Ga9  1  0.15393571  0.02460043  0.89847384  1.0
  Ga  Ga10  1  0.19439673  0.89424484  0.42401059  1.0
  Ga  Ga11  1  0.19831480  0.67372021  0.37655795  1.0
  Ga  Ga12  1  0.21140153  0.01140109  0.64906217  1.0
  Ga  Ga13  1  0.21883661  0.30337102  0.06205470  1.0
  Ga  Ga14  1  0.23249268  0.60287911  0.12696659  1.0
  Ga  Ga15  1  0.23580435  0.55761111  0.81834285  1.0
  Ga  Ga16  1  0.28363349  0.35345571  0.58800263  1.0
  Ga  Ga17  1  0.28948825  0.80239976  0.05886802  1.0
  Ga  Ga18  1  0.32098178  0.17587306  0.33321990  1.0
  Ga  Ga19  1  0.33556301  0.14120680  0.55040145  1.0
  Ga  Ga20  1  0.35324241  0.83421295  0.78665404  1.0
  Ga  Ga21  1  0.35863345  0.42806268  0.30156329  1.0
  Ga  Ga22  1  0.36060713  0.45789809  0.01665483  1.0
  Ga  Ga23  1  0.37251998  0.11811859  0.88681047  1.0
  Ga  Ga24  1  0.43020074  0.71876573  0.24296288  1.0
  Ga  Ga25  1  0.43089036  0.87792449  0.39399115  1.0
  Ga  Ga26  1  0.43208430  0.36212105  0.83630645  1.0
  Ga  Ga27  1  0.46175512  0.63957043  0.97036223  1.0
  Ga  Ga28  1  0.48001636  0.34010610  0.47600036  1.0
  Ga  Ga29  1  0.48178629  0.90499324  0.62619534  1.0
  Ga  Ga30  1  0.55120251  0.84177089  0.03745738  1.0
  Ga  Ga31  1  0.55315104  0.06472945  0.44382809  1.0
  Ga  Ga32  1  0.58315074  0.97638697  0.20759475  1.0
  Ga  Ga33  1  0.58730149  0.19691943  0.22869597  1.0
  Ga  Ga34  1  0.59876859  0.10694767  0.73052536  1.0
  Ga  Ga35  1  0.60693014  0.58033706  0.83069801  1.0
  Ga  Ga36  1  0.62769841  0.29974274  0.95561789  1.0
  Ga  Ga37  1  0.63908623  0.34115059  0.66541111  1.0
  Ga  Ga38  1  0.65451809  0.83354969  0.84021996  1.0
  Ga  Ga39  1  0.75661985  0.92836205  0.59313673  1.0
  Ga  Ga40  1  0.77812958  0.02032434  0.31476437  1.0
  Ga  Ga41  1  0.77935884  0.71595384  0.60231564  1.0
  Ga  Ga42  1  0.79391431  0.24548639  0.19114576  1.0
  Ga  Ga43  1  0.81301788  0.16485231  0.55657175  1.0
  Ga  Ga44  1  0.88943295  0.67019364  0.81473432  1.0
  Ga  Ga45  1  0.89798396  0.18898145  0.80379983  1.0
  Ga  Ga46  1  0.93532095  0.27046666  0.00741723  1.0
  Ga  Ga47  1  0.93864796  0.57694474  0.53082415  1.0
  Ga  Ga48  1  0.97457129  0.92910777  0.65820281  1.0
  Ga  Ga49  1  0.98109026  0.08068027  0.25300303  1.0
  N  N50  1  0.00079192  0.67633601  0.93907127  1.0
  N  N51  1  0.03061628  0.93738165  0.81533328  1.0
  N  N52  1  0.03727511  0.22357705  0.72706322  1.0
  N  N53  1  0.07201978  0.36371337  0.97525862  1.0
  N  N54  1  0.07771372  0.10417369  0.49830048  1.0
  N  N55  1  0.08548925  0.05811919  0.40392142  1.0
  N  N56  1  0.11060971  0.60267530  0.49570923  1.0
  N  N57  1  0.12456593  0.87989181  0.57906188  1.0
  N  N58  1  0.16408491  0.90150865  0.01180480  1.0
  N  N59  1  0.21892275  0.71845904  0.76979453  1.0
  N  N60  1  0.22520006  0.18114323  0.93665538  1.0
  N  N61  1  0.24250116  0.30064116  0.23354453  1.0
  N  N62  1  0.27886630  0.39366816  0.75439764  1.0
  N  N63  1  0.29074852  0.99349585  0.80356448  1.0
  N  N64  1  0.31047975  0.58887140  0.28131768  1.0
  N  N65  1  0.32462280  0.08150019  0.16168734  1.0
  N  N66  1  0.40264904  0.07948959  0.10271742  1.0
  N  N67  1  0.40339473  0.79913332  0.94325467  1.0
  N  N68  1  0.41972673  0.61111915  0.54958330  1.0
  N  N69  1  0.46714549  0.39757713  0.14794672  1.0
  N  N70  1  0.47313231  0.60787294  0.63296185  1.0
  N  N71  1  0.48645723  0.07786131  0.59718852  1.0
  N  N72  1  0.50123234  0.20736040  0.36560795  1.0
  N  N73  1  0.51287580  0.19460536  0.85703885  1.0
  N  N74  1  0.52836242  0.69603370  0.11826914  1.0
  N  N75  1  0.54094381  0.32677478  0.12172990  1.0
  N  N76  1  0.59684892  0.41292044  0.81398011  1.0
  N  N77  1  0.61414177  0.52862133  0.36641515  1.0
  N  N78  1  0.62563796  0.62280755  0.37903847  1.0
  N  N79  1  0.64326315  0.94282154  0.71694429  1.0
  N  N80  1  0.70389617  0.52353364  0.05564827  1.0
  N  N81  1  0.72314552  0.04398370  0.47331485  1.0
  N  N82  1  0.72643288  0.68456189  0.77064705  1.0
  N  N83  1  0.73764746  0.20266793  0.70277122  1.0
  N  N84  1  0.74571311  0.76619151  0.20460283  1.0
  N  N85  1  0.76385773  0.32890550  0.46076167  1.0
  N  N86  1  0.77305740  0.28891764  0.03610218  1.0
  N  N87  1  0.77725729  0.35963527  0.37045435  1.0
  N  N88  1  0.79115898  0.54881697  0.02741495  1.0
  N  N89  1  0.79202005  0.02024069  0.97304420  1.0
  N  N90  1  0.80716937  0.75389600  0.13348917  1.0
  N  N91  1  0.85769321  0.97193354  0.02594399  1.0
  N  N92  1  0.85904828  0.42396124  0.69970665  1.0
  N  N93  1  0.87363699  0.54803999  0.28190758  1.0
  N  N94  1  0.87998349  0.47202399  0.78500358  1.0
  N  N95  1  0.88967915  0.84811320  0.39516552  1.0
  N  N96  1  0.94300548  0.77152180  0.37227941  1.0
  N  N97  1  0.94407863  0.50960077  0.23012209  1.0
  N  N98  1  0.95532722  0.69748624  0.67016106  1.0
  N  N99  1  0.96811421  0.23560079  0.18594598  1.0
