# generated using pymatgen
data_GaN
_symmetry_space_group_name_H-M   P1
_cell_length_a   11.44056583
_cell_length_b   12.10239651
_cell_length_c   12.09179318
_cell_angle_alpha   87.23435042
_cell_angle_beta   88.41682054
_cell_angle_gamma   100.09368446
_symmetry_Int_Tables_number   1
_chemical_formula_structural   GaN
_chemical_formula_sum   'Ga50 N50'
_cell_volume   1645.26748289
_cell_formula_units_Z   50
loop_
 _symmetry_equiv_pos_site_id
 _symmetry_equiv_pos_as_xyz
  1  'x, y, z'
loop_
 _atom_site_type_symbol
 _atom_site_label
 _atom_site_symmetry_multiplicity
 _atom_site_fract_x
 _atom_site_fract_y
 _atom_site_fract_z
 _atom_site_occupancy
  Ga  Ga0  1  0.00843138  0.73238336  0.39069900  1.0
  Ga  Ga1  1  0.01608677  0.43620024  0.38375783  1.0
  Ga  Ga2  1  0.02862605  0.20696566  0.83890888  1.0
  Ga  Ga3  1  0.03642955  0.79629942  0.16219944  1.0
  Ga  Ga4  1  0.08042055  0.01790822  0.32312112  1.0
  Ga  Ga5  1  0.08966271  0.09028358  0.06936405  1.0
  Ga  Ga6  1  0.09070272  0.74942627  0.58833532  1.0
  Ga  Ga7  1  0.10767320  0.96679474  0.79772116  1.0
  Ga  Ga8  1  0.13211775  0.26986130  0.29657145  1.0
  Ga  Ga9  1  0.13300855  0.91053127  0.00095264  1.0
  Ga  Ga10  1  0.18295016  0.59588490  0.30212525  1.0
  Ga  Ga11  1  0.22086576  0.95596288  0.52812699  1.0
  Ga  Ga12  1  0.27969364  0.12703138  0.83760937  1.0
  Ga  Ga13  1  0.28678294  0.31557915  0.96036338  1.0
  Ga  Ga14  1  0.31095701  0.76842180  0.37772291  1.0
  Ga  Ga15  1  0.33573796  0.50420132  0.17906029  1.0
  Ga  Ga16  1  0.36674688  0.98010356  0.32213929  1.0
  Ga  Ga17  1  0.40808880  0.98439249  0.99096842  1.0
  Ga  Ga18  1  0.44148553  0.84192234  0.56747619  1.0
  Ga  Ga19  1  0.52236995  0.40785392  0.09853837  1.0
  Ga  Ga20  1  0.53891744  0.31738769  0.82429613  1.0
  Ga  Ga21  1  0.56743678  0.07521052  0.80987420  1.0
  Ga  Ga22  1  0.57174700  0.84954976  0.73447755  1.0
  Ga  Ga23  1  0.57440564  0.77475983  0.37696847  1.0
  Ga  Ga24  1  0.58537652  0.92727333  0.22061633  1.0
  Ga  Ga25  1  0.59022806  0.55102910  0.32302816  1.0
  Ga  Ga26  1  0.59855404  0.02041181  0.45931889  1.0
  Ga  Ga27  1  0.60512740  0.83880119  0.94649769  1.0
  Ga  Ga28  1  0.60567343  0.22006824  0.28042246  1.0
  Ga  Ga29  1  0.60830639  0.64210262  0.04554174  1.0
  Ga  Ga30  1  0.62986318  0.68846318  0.59567177  1.0
  Ga  Ga31  1  0.64957700  0.23193623  0.98818558  1.0
  Ga  Ga32  1  0.69354500  0.42400325  0.66822359  1.0
  Ga  Ga33  1  0.69812307  0.04822217  0.03857544  1.0
  Ga  Ga34  1  0.70730224  0.36662883  0.40807890  1.0
  Ga  Ga35  1  0.72000406  0.17113222  0.58865304  1.0
  Ga  Ga36  1  0.72414606  0.47668084  0.91740251  1.0
  Ga  Ga37  1  0.76079044  0.90053490  0.60077421  1.0
  Ga  Ga38  1  0.78795073  0.69835857  0.15714610  1.0
  Ga  Ga39  1  0.80881124  0.33953422  0.13731824  1.0
  Ga  Ga40  1  0.80972804  0.61472399  0.43807082  1.0
  Ga  Ga41  1  0.81621045  0.02717732  0.80101152  1.0
  Ga  Ga42  1  0.81720788  0.87805733  0.31347206  1.0
  Ga  Ga43  1  0.86077218  0.09471692  0.44789380  1.0
  Ga  Ga44  1  0.86479904  0.13911943  0.22918175  1.0
  Ga  Ga45  1  0.87319800  0.90982800  0.05957186  1.0
  Ga  Ga46  1  0.88877873  0.34107176  0.84321171  1.0
  Ga  Ga47  1  0.88994134  0.53564794  0.21563176  1.0
  Ga  Ga48  1  0.89813463  0.60021002  0.67504585  1.0
  Ga  Ga49  1  0.97101015  0.00730372  0.60912659  1.0
  N  N50  1  0.03886071  0.65370155  0.24635795  1.0
  N  N51  1  0.04635724  0.13643714  0.21563033  1.0
  N  N52  1  0.06279375  0.65019696  0.93565777  1.0
  N  N53  1  0.07584731  0.39916817  0.12313332  1.0
  N  N54  1  0.09094212  0.40697743  0.03046397  1.0
  N  N55  1  0.09538284  0.91548073  0.64133411  1.0
  N  N56  1  0.14960842  0.19983252  0.94517448  1.0
  N  N57  1  0.16117275  0.50297696  0.71900656  1.0
  N  N58  1  0.17233328  0.20538493  0.57200146  1.0
  N  N59  1  0.17866923  0.45134150  0.79369229  1.0
  N  N60  1  0.18324074  0.23775970  0.65736041  1.0
  N  N61  1  0.23085125  0.03456998  0.38876519  1.0
  N  N62  1  0.25924677  0.72344846  0.79176461  1.0
  N  N63  1  0.26947913  0.80544939  0.53392070  1.0
  N  N64  1  0.27768485  0.67082819  0.05829395  1.0
  N  N65  1  0.28926399  0.48700777  0.51163156  1.0
  N  N66  1  0.29700629  0.81363612  0.80323288  1.0
  N  N67  1  0.31871113  0.13625984  0.14676291  1.0
  N  N68  1  0.34260899  0.20346936  0.20848754  1.0
  N  N69  1  0.35452229  0.73725923  0.02750559  1.0
  N  N70  1  0.35953084  0.40255486  0.06693197  1.0
  N  N71  1  0.36096574  0.55547571  0.53640457  1.0
  N  N72  1  0.37227573  0.03902767  0.60538131  1.0
  N  N73  1  0.37545972  0.27029910  0.84411412  1.0
  N  N74  1  0.39582450  0.08891107  0.68377485  1.0
  N  N75  1  0.41704147  0.28238704  0.44638156  1.0
  N  N76  1  0.42736176  0.30589895  0.53418684  1.0
  N  N77  1  0.43495140  0.57281052  0.84940881  1.0
  N  N78  1  0.46606812  0.55223630  0.76546201  1.0
  N  N79  1  0.51887305  0.54885110  0.17489363  1.0
  N  N80  1  0.53711393  0.05953917  0.30536213  1.0
  N  N81  1  0.54482834  0.93571494  0.06225930  1.0
  N  N82  1  0.61788489  0.29903686  0.13487183  1.0
  N  N83  1  0.69928310  0.31953973  0.55956621  1.0
  N  N84  1  0.72502004  0.13499753  0.74723205  1.0
  N  N85  1  0.73316617  0.70966707  0.31843751  1.0
  N  N86  1  0.73651010  0.92857434  0.44144359  1.0
  N  N87  1  0.74165080  0.58375906  0.59220757  1.0
  N  N88  1  0.76683192  0.94703541  0.93990492  1.0
  N  N89  1  0.78013008  0.98124484  0.18420690  1.0
  N  N90  1  0.79825117  0.34925761  0.97523500  1.0
  N  N91  1  0.83047168  0.46779602  0.77162291  1.0
  N  N92  1  0.84237803  0.74394498  0.78453350  1.0
  N  N93  1  0.85521730  0.47706379  0.37606974  1.0
  N  N94  1  0.86720629  0.76382573  0.87186637  1.0
  N  N95  1  0.95638738  0.30220610  0.61309670  1.0
  N  N96  1  0.98196416  0.58716422  0.96178198  1.0
  N  N97  1  0.98557825  0.06621524  0.76744871  1.0
  N  N98  1  0.98907519  0.87202230  0.30228022  1.0
  N  N99  1  0.99646071  0.38027714  0.56028254  1.0
