# generated using pymatgen
data_GaN
_symmetry_space_group_name_H-M   P1
_cell_length_a   12.03800926
_cell_length_b   13.69109894
_cell_length_c   13.88559497
_cell_angle_alpha   86.43861499
_cell_angle_beta   88.65840043
_cell_angle_gamma   96.39341487
_symmetry_Int_Tables_number   1
_chemical_formula_structural   GaN
_chemical_formula_sum   'Ga50 N50'
_cell_volume   2268.84791711
_cell_formula_units_Z   50
loop_
 _symmetry_equiv_pos_site_id
 _symmetry_equiv_pos_as_xyz
  1  'x, y, z'
loop_
 _atom_site_type_symbol
 _atom_site_label
 _atom_site_symmetry_multiplicity
 _atom_site_fract_x
 _atom_site_fract_y
 _atom_site_fract_z
 _atom_site_occupancy
  Ga  Ga0  1  0.01267350  0.00757962  0.99529656  1.0
  Ga  Ga1  1  0.01586145  0.46870351  0.08492081  1.0
  Ga  Ga2  1  0.03256025  0.28115243  0.16165150  1.0
  Ga  Ga3  1  0.03300965  0.68996342  0.59340495  1.0
  Ga  Ga4  1  0.03461178  0.05700146  0.17563238  1.0
  Ga  Ga5  1  0.04918948  0.96705255  0.60750787  1.0
  Ga  Ga6  1  0.06172997  0.48674133  0.90255701  1.0
  Ga  Ga7  1  0.09128473  0.08482179  0.78712264  1.0
  Ga  Ga8  1  0.15827287  0.89788563  0.10686319  1.0
  Ga  Ga9  1  0.17072197  0.89096265  0.84207237  1.0
  Ga  Ga10  1  0.17996161  0.19072571  0.29026896  1.0
  Ga  Ga11  1  0.18550036  0.58453406  0.15712674  1.0
  Ga  Ga12  1  0.21089550  0.23070905  0.04372384  1.0
  Ga  Ga13  1  0.21441791  0.11033310  0.63737343  1.0
  Ga  Ga14  1  0.22604404  0.68453987  0.67012192  1.0
  Ga  Ga15  1  0.24767886  0.40723131  0.93568837  1.0
  Ga  Ga16  1  0.27692958  0.41845568  0.13724641  1.0
  Ga  Ga17  1  0.27788359  0.07143818  0.99550068  1.0
  Ga  Ga18  1  0.30002297  0.76567006  0.14947137  1.0
  Ga  Ga19  1  0.34436354  0.03293705  0.76421887  1.0
  Ga  Ga20  1  0.36200822  0.80512911  0.78503245  1.0
  Ga  Ga21  1  0.39347955  0.58062436  0.78331654  1.0
  Ga  Ga22  1  0.42481259  0.67490997  0.61449901  1.0
  Ga  Ga23  1  0.44379349  0.35625598  0.01962576  1.0
  Ga  Ga24  1  0.44528451  0.23162608  0.88569865  1.0
  Ga  Ga25  1  0.48378900  0.00052313  0.96894030  1.0
  Ga  Ga26  1  0.48538135  0.39181658  0.76940866  1.0
  Ga  Ga27  1  0.49053732  0.79483166  0.94201760  1.0
  Ga  Ga28  1  0.49304081  0.87120755  0.11647018  1.0
  Ga  Ga29  1  0.54864265  0.51105510  0.93755273  1.0
  Ga  Ga30  1  0.56231456  0.91598673  0.75334398  1.0
  Ga  Ga31  1  0.56774091  0.52816262  0.62433293  1.0
  Ga  Ga32  1  0.61933176  0.74037486  0.67702173  1.0
  Ga  Ga33  1  0.65911908  0.67668886  0.98122575  1.0
  Ga  Ga34  1  0.67401273  0.57131238  0.78237843  1.0
  Ga  Ga35  1  0.72032043  0.89530057  0.95428485  1.0
  Ga  Ga36  1  0.74162883  0.85954240  0.44499753  1.0
  Ga  Ga37  1  0.75230566  0.63789104  0.53188343  1.0
  Ga  Ga38  1  0.76212213  0.91407074  0.62714433  1.0
  Ga  Ga39  1  0.77580344  0.74966977  0.82369520  1.0
  Ga  Ga40  1  0.80994942  0.50123148  0.90899655  1.0
  Ga  Ga41  1  0.83682814  0.60177000  0.06625992  1.0
  Ga  Ga42  1  0.84964751  0.89811874  0.10579102  1.0
  Ga  Ga43  1  0.86859166  0.94830430  0.81768417  1.0
  Ga  Ga44  1  0.89349356  0.60946772  0.73019663  1.0
  Ga  Ga45  1  0.89451965  0.69347780  0.38023277  1.0
  Ga  Ga46  1  0.90101785  0.91055807  0.28545877  1.0
  Ga  Ga47  1  0.90935489  0.73238623  0.19081655  1.0
  Ga  Ga48  1  0.99452470  0.87685531  0.45468321  1.0
  Ga  Ga49  1  0.99824671  0.80515890  0.73997811  1.0
  N  N50  1  0.00850257  0.73898065  0.46695162  1.0
  N  N51  1  0.03599463  0.34572150  0.43435560  1.0
  N  N52  1  0.06577448  0.35926785  0.50775399  1.0
  N  N53  1  0.06653319  0.74919768  0.97217315  1.0
  N  N54  1  0.14371877  0.36315343  0.73340398  1.0
  N  N55  1  0.16571503  0.96133493  0.96877291  1.0
  N  N56  1  0.20350993  0.40238123  0.67776425  1.0
  N  N57  1  0.21121664  0.28484073  0.17462298  1.0
  N  N58  1  0.23415191  0.85201189  0.33807610  1.0
  N  N59  1  0.23692010  0.89084763  0.40602748  1.0
  N  N60  1  0.24749478  0.59993082  0.38823440  1.0
  N  N61  1  0.25250972  0.62015181  0.00433063  1.0
  N  N62  1  0.27465416  0.66161754  0.93162421  1.0
  N  N63  1  0.31615490  0.65627113  0.40663463  1.0
  N  N64  1  0.34907295  0.33902345  0.48677004  1.0
  N  N65  1  0.36679551  0.02674310  0.22259943  1.0
  N  N66  1  0.36816456  0.06840799  0.28918161  1.0
  N  N67  1  0.39011845  0.46209515  0.86728603  1.0
  N  N68  1  0.39853457  0.09218940  0.88385575  1.0
  N  N69  1  0.42671948  0.07001928  0.51146202  1.0
  N  N70  1  0.43552066  0.33321587  0.51093975  1.0
  N  N71  1  0.43618659  0.99002223  0.51739499  1.0
  N  N72  1  0.48139079  0.28736204  0.29285852  1.0
  N  N73  1  0.49801275  0.25149520  0.22525576  1.0
  N  N74  1  0.52763714  0.63104454  0.22981666  1.0
  N  N75  1  0.56201811  0.66179873  0.29643085  1.0
  N  N76  1  0.58807092  0.93650995  0.89113670  1.0
  N  N77  1  0.61611841  0.06796898  0.30790544  1.0
  N  N78  1  0.62564463  0.16210641  0.65395107  1.0
  N  N79  1  0.64093582  0.06801959  0.38440049  1.0
  N  N80  1  0.66317637  0.45018535  0.18593095  1.0
  N  N81  1  0.67607822  0.39323946  0.13429985  1.0
  N  N82  1  0.70215704  0.14614300  0.61427121  1.0
  N  N83  1  0.70530188  0.28842362  0.38609638  1.0
  N  N84  1  0.71956708  0.77150303  0.56145089  1.0
  N  N85  1  0.74283353  0.30609406  0.45583741  1.0
  N  N86  1  0.78087513  0.39294706  0.64405527  1.0
  N  N87  1  0.80927944  0.18360778  0.02685223  1.0
  N  N88  1  0.84535906  0.22944813  0.78021513  1.0
  N  N89  1  0.85809392  0.24711663  0.98570020  1.0
  N  N90  1  0.87125928  0.41817990  0.62893515  1.0
  N  N91  1  0.87342753  0.44416399  0.27854972  1.0
  N  N92  1  0.88802261  0.12737751  0.37402060  1.0
  N  N93  1  0.89384299  0.48808786  0.34194396  1.0
  N  N94  1  0.91151093  0.92425947  0.68589136  1.0
  N  N95  1  0.91941750  0.22285784  0.73300939  1.0
  N  N96  1  0.92639900  0.12360907  0.44610144  1.0
  N  N97  1  0.94626264  0.52148892  0.82764529  1.0
  N  N98  1  0.96832113  0.04503388  0.87004627  1.0
  N  N99  1  0.98428785  0.70165326  0.96893962  1.0
