# generated using pymatgen
data_GaN
_symmetry_space_group_name_H-M   P1
_cell_length_a   11.13947311
_cell_length_b   11.45205295
_cell_length_c   11.82561816
_cell_angle_alpha   93.31693725
_cell_angle_beta   94.05141030
_cell_angle_gamma   86.74678957
_symmetry_Int_Tables_number   1
_chemical_formula_structural   GaN
_chemical_formula_sum   'Ga50 N50'
_cell_volume   1500.19931851
_cell_formula_units_Z   50
loop_
 _symmetry_equiv_pos_site_id
 _symmetry_equiv_pos_as_xyz
  1  'x, y, z'
loop_
 _atom_site_type_symbol
 _atom_site_label
 _atom_site_symmetry_multiplicity
 _atom_site_fract_x
 _atom_site_fract_y
 _atom_site_fract_z
 _atom_site_occupancy
  Ga  Ga0  1  0.00700728  0.35160129  0.58616928  1.0
  Ga  Ga1  1  0.00957943  0.44360923  0.18240694  1.0
  Ga  Ga2  1  0.04243038  0.07117546  0.60665094  1.0
  Ga  Ga3  1  0.05900807  0.90388435  0.36635967  1.0
  Ga  Ga4  1  0.06167777  0.20640896  0.84468076  1.0
  Ga  Ga5  1  0.07264558  0.70558607  0.86832978  1.0
  Ga  Ga6  1  0.09528347  0.99170152  0.09009598  1.0
  Ga  Ga7  1  0.11455496  0.72764529  0.16569186  1.0
  Ga  Ga8  1  0.15285800  0.50161395  0.05404243  1.0
  Ga  Ga9  1  0.18440992  0.44233650  0.82842230  1.0
  Ga  Ga10  1  0.19892191  0.92130217  0.85515622  1.0
  Ga  Ga11  1  0.23586058  0.26906614  0.60741553  1.0
  Ga  Ga12  1  0.27850102  0.04808446  0.43103753  1.0
  Ga  Ga13  1  0.31133616  0.05318012  0.06492393  1.0
  Ga  Ga14  1  0.32057718  0.73111797  0.36258469  1.0
  Ga  Ga15  1  0.35440476  0.76132160  0.97478487  1.0
  Ga  Ga16  1  0.35923207  0.65688488  0.75986101  1.0
  Ga  Ga17  1  0.37500946  0.26812336  0.03603380  1.0
  Ga  Ga18  1  0.39878043  0.42226288  0.63574387  1.0
  Ga  Ga19  1  0.42518067  0.46835608  0.92552511  1.0
  Ga  Ga20  1  0.46059209  0.58526078  0.50356472  1.0
  Ga  Ga21  1  0.49034399  0.39701358  0.20190624  1.0
  Ga  Ga22  1  0.50574043  0.60306669  0.14738333  1.0
  Ga  Ga23  1  0.52523507  0.07733038  0.43277919  1.0
  Ga  Ga24  1  0.53268266  0.96363029  0.90411399  1.0
  Ga  Ga25  1  0.55346089  0.24522365  0.60403801  1.0
  Ga  Ga26  1  0.57902683  0.17566167  0.83095073  1.0
  Ga  Ga27  1  0.62314186  0.65528221  0.88845351  1.0
  Ga  Ga28  1  0.62450738  0.72938447  0.64679738  1.0
  Ga  Ga29  1  0.62734779  0.40580407  0.76394893  1.0
  Ga  Ga30  1  0.63515375  0.32891033  0.35052746  1.0
  Ga  Ga31  1  0.64610198  0.98929426  0.65513883  1.0
  Ga  Ga32  1  0.65111541  0.29822129  0.05244904  1.0
  Ga  Ga33  1  0.68477548  0.73012232  0.41702925  1.0
  Ga  Ga34  1  0.73361331  0.49590693  0.20260649  1.0
  Ga  Ga35  1  0.73551417  0.84492689  0.98086369  1.0
  Ga  Ga36  1  0.74748202  0.46799194  0.51471836  1.0
  Ga  Ga37  1  0.79312450  0.93528629  0.41450108  1.0
  Ga  Ga38  1  0.79556169  0.17488096  0.49399379  1.0
  Ga  Ga39  1  0.81221043  0.16245657  0.92899819  1.0
  Ga  Ga40  1  0.81511946  0.92093114  0.19385560  1.0
  Ga  Ga41  1  0.82904575  0.31260341  0.71878690  1.0
  Ga  Ga42  1  0.85869883  0.45217077  0.94055958  1.0
  Ga  Ga43  1  0.88392608  0.68358653  0.08208943  1.0
  Ga  Ga44  1  0.90911794  0.80752214  0.59091270  1.0
  Ga  Ga45  1  0.91601882  0.13119001  0.30186106  1.0
  Ga  Ga46  1  0.91681407  0.61802633  0.70845999  1.0
  Ga  Ga47  1  0.95178056  0.98879423  0.86309664  1.0
  Ga  Ga48  1  0.95274242  0.35990145  0.36216218  1.0
  Ga  Ga49  1  0.96505697  0.23397943  0.11214342  1.0
  N  N50  1  0.04840145  0.13775258  0.00561514  1.0
  N  N51  1  0.06435847  0.54343611  0.91205011  1.0
  N  N52  1  0.06459063  0.87903849  0.95037472  1.0
  N  N53  1  0.08117027  0.04164234  0.77076429  1.0
  N  N54  1  0.12536226  0.31572833  0.73185949  1.0
  N  N55  1  0.13153695  0.68032391  0.54126769  1.0
  N  N56  1  0.15892826  0.77905771  0.32036025  1.0
  N  N57  1  0.16939724  0.24347122  0.25861516  1.0
  N  N58  1  0.17799153  0.13007496  0.53506809  1.0
  N  N59  1  0.17837433  0.61141193  0.59510653  1.0
  N  N60  1  0.19613064  0.50289954  0.34941060  1.0
  N  N61  1  0.23802702  0.74867307  0.83484634  1.0
  N  N62  1  0.26640091  0.22818371  0.29016181  1.0
  N  N63  1  0.26799289  0.87945238  0.58442430  1.0
  N  N64  1  0.27744976  0.40691860  0.98253839  1.0
  N  N65  1  0.28785686  0.73791776  0.12035521  1.0
  N  N66  1  0.28815437  0.45775966  0.36108161  1.0
  N  N67  1  0.30169701  0.14867700  0.82487061  1.0
  N  N68  1  0.32025572  0.89853296  0.66765839  1.0
  N  N69  1  0.33752362  0.49568610  0.77662680  1.0
  N  N70  1  0.36433526  0.13594928  0.75309308  1.0
  N  N71  1  0.36645960  0.70100723  0.19995322  1.0
  N  N72  1  0.36770447  0.93163032  0.94757051  1.0
  N  N73  1  0.48029184  0.62857115  0.98454881  1.0
  N  N74  1  0.50657305  0.92685724  0.51984522  1.0
  N  N75  1  0.51202166  0.30901566  0.93427188  1.0
  N  N76  1  0.51464948  0.70342768  0.75511117  1.0
  N  N77  1  0.52136102  0.90380249  0.26880760  1.0
  N  N78  1  0.52513489  0.90797093  0.17413000  1.0
  N  N79  1  0.54520950  0.82745769  0.50644009  1.0
  N  N80  1  0.58557509  0.13495053  0.16888970  1.0
  N  N81  1  0.60552292  0.14540794  0.26580927  1.0
  N  N82  1  0.63721298  0.60525430  0.51365652  1.0
  N  N83  1  0.67509435  0.30789746  0.50958475  1.0
  N  N84  1  0.69601773  0.04468218  0.50361736  1.0
  N  N85  1  0.70091721  0.50058322  0.88135253  1.0
  N  N86  1  0.70630341  0.67690646  0.25188157  1.0
  N  N87  1  0.76274752  0.71682636  0.76682495  1.0
  N  N88  1  0.77114089  0.74158795  0.19781451  1.0
  N  N89  1  0.77965413  0.42212173  0.34793542  1.0
  N  N90  1  0.80702472  0.81484412  0.81118890  1.0
  N  N91  1  0.86233731  0.88249923  0.75128499  1.0
  N  N92  1  0.86456669  0.51403621  0.09878770  1.0
  N  N93  1  0.87362227  0.46372551  0.63981083  1.0
  N  N94  1  0.90488556  0.29708150  0.87137702  1.0
  N  N95  1  0.91390742  0.62373753  0.41000934  1.0
  N  N96  1  0.91766491  0.20526915  0.61116142  1.0
  N  N97  1  0.96408217  0.63536236  0.33227730  1.0
  N  N98  1  0.97009283  0.93716986  0.50299091  1.0
  N  N99  1  0.99430620  0.98454613  0.22853167  1.0
