# generated using pymatgen
data_GaN
_symmetry_space_group_name_H-M   P1
_cell_length_a   11.24587610
_cell_length_b   11.40349230
_cell_length_c   12.42707544
_cell_angle_alpha   92.93581103
_cell_angle_beta   95.43222612
_cell_angle_gamma   90.12602330
_symmetry_Int_Tables_number   1
_chemical_formula_structural   GaN
_chemical_formula_sum   'Ga50 N50'
_cell_volume   1584.39680305
_cell_formula_units_Z   50
loop_
 _symmetry_equiv_pos_site_id
 _symmetry_equiv_pos_as_xyz
  1  'x, y, z'
loop_
 _atom_site_type_symbol
 _atom_site_label
 _atom_site_symmetry_multiplicity
 _atom_site_fract_x
 _atom_site_fract_y
 _atom_site_fract_z
 _atom_site_occupancy
  Ga  Ga0  1  0.00875969  0.73138501  0.16735175  1.0
  Ga  Ga1  1  0.01355263  0.95694978  0.17743571  1.0
  Ga  Ga2  1  0.03620330  0.90373781  0.77633524  1.0
  Ga  Ga3  1  0.05062398  0.77886756  0.58746308  1.0
  Ga  Ga4  1  0.06357114  0.62544323  0.34882581  1.0
  Ga  Ga5  1  0.06670096  0.21570744  0.12869511  1.0
  Ga  Ga6  1  0.10725641  0.49202922  0.11479688  1.0
  Ga  Ga7  1  0.11216931  0.46376150  0.55347040  1.0
  Ga  Ga8  1  0.12037099  0.06913301  0.32596082  1.0
  Ga  Ga9  1  0.16044379  0.65791911  0.00235365  1.0
  Ga  Ga10  1  0.16687648  0.98475333  0.97573184  1.0
  Ga  Ga11  1  0.16864657  0.57909116  0.75560432  1.0
  Ga  Ga12  1  0.17907132  0.35800476  0.34616371  1.0
  Ga  Ga13  1  0.19133177  0.18644996  0.55819415  1.0
  Ga  Ga14  1  0.20857992  0.10837821  0.76261253  1.0
  Ga  Ga15  1  0.22429034  0.90320048  0.44570931  1.0
  Ga  Ga16  1  0.25434119  0.63433724  0.56131213  1.0
  Ga  Ga17  1  0.31796129  0.61887855  0.30930453  1.0
  Ga  Ga18  1  0.32688221  0.85726060  0.68475585  1.0
  Ga  Ga19  1  0.34755116  0.63115831  0.89178791  1.0
  Ga  Ga20  1  0.38430639  0.39946368  0.54595305  1.0
  Ga  Ga21  1  0.41539641  0.95893464  0.15150823  1.0
  Ga  Ga22  1  0.43769245  0.27287914  0.70442552  1.0
  Ga  Ga23  1  0.45188313  0.03474264  0.61616953  1.0
  Ga  Ga24  1  0.45214911  0.55416766  0.70484974  1.0
  Ga  Ga25  1  0.45309461  0.06753603  0.88382687  1.0
  Ga  Ga26  1  0.48088928  0.76811411  0.52187389  1.0
  Ga  Ga27  1  0.48545289  0.81574213  0.96172237  1.0
  Ga  Ga28  1  0.54461732  0.51098013  0.45614340  1.0
  Ga  Ga29  1  0.57346209  0.73463157  0.28162268  1.0
  Ga  Ga30  1  0.57603799  0.81698381  0.74866023  1.0
  Ga  Ga31  1  0.57814427  0.28663177  0.25308148  1.0
  Ga  Ga32  1  0.59920728  0.06156309  0.06041376  1.0
  Ga  Ga33  1  0.62358463  0.56854246  0.86233401  1.0
  Ga  Ga34  1  0.65640870  0.29605828  0.87908198  1.0
  Ga  Ga35  1  0.69317605  0.60556206  0.63174736  1.0
  Ga  Ga36  1  0.70890149  0.35207323  0.67209825  1.0
  Ga  Ga37  1  0.75158733  0.91900091  0.60313290  1.0
  Ga  Ga38  1  0.77734114  0.83356910  0.93850019  1.0
  Ga  Ga39  1  0.78749418  0.87565729  0.17027264  1.0
  Ga  Ga40  1  0.83291293  0.17921071  0.21253057  1.0
  Ga  Ga41  1  0.84836418  0.48983075  0.51580239  1.0
  Ga  Ga42  1  0.85603944  0.21255593  0.47229844  1.0
  Ga  Ga43  1  0.87119590  0.09926075  0.00944830  1.0
  Ga  Ga44  1  0.91144025  0.38103522  0.31038884  1.0
  Ga  Ga45  1  0.92866525  0.29947685  0.92307757  1.0
  Ga  Ga46  1  0.93384664  0.63108189  0.69093975  1.0
  Ga  Ga47  1  0.97823910  0.75370846  0.90811374  1.0
  Ga  Ga48  1  0.97834256  0.31506538  0.71822846  1.0
  Ga  Ga49  1  0.98157338  0.05581565  0.56892020  1.0
  N  N50  1  0.03903665  0.35095618  0.05094874  1.0
  N  N51  1  0.04323902  0.05716296  0.05525050  1.0
  N  N52  1  0.04650618  0.47076348  0.69560727  1.0
  N  N53  1  0.07553853  0.17668543  0.67552259  1.0
  N  N54  1  0.12282096  0.04657044  0.47757626  1.0
  N  N55  1  0.13940998  0.21853233  0.27026910  1.0
  N  N56  1  0.15881708  0.74190090  0.45719459  1.0
  N  N57  1  0.16467481  0.87006171  0.69006028  1.0
  N  N58  1  0.19193822  0.50605733  0.27692201  1.0
  N  N59  1  0.21413623  0.33854891  0.49985482  1.0
  N  N60  1  0.23638117  0.78718759  0.12328657  1.0
  N  N61  1  0.25784321  0.89317960  0.08904678  1.0
  N  N62  1  0.27113857  0.34634034  0.86762493  1.0
  N  N63  1  0.27565781  0.06374142  0.89635812  1.0
  N  N64  1  0.30331615  0.40265343  0.94072124  1.0
  N  N65  1  0.32077282  0.19890376  0.10509737  1.0
  N  N66  1  0.32394362  0.74411760  0.19320590  1.0
  N  N67  1  0.32474088  0.14387434  0.65686157  1.0
  N  N68  1  0.37725327  0.90480764  0.52887439  1.0
  N  N69  1  0.39427816  0.22100460  0.36208492  1.0
  N  N70  1  0.39604948  0.26339420  0.10143619  1.0
  N  N71  1  0.39636906  0.70592461  0.64228100  1.0
  N  N72  1  0.39781697  0.12534591  0.38053736  1.0
  N  N73  1  0.42167428  0.80708479  0.21348310  1.0
  N  N74  1  0.45397549  0.50333557  0.14873561  1.0
  N  N75  1  0.46707752  0.94582601  0.75642089  1.0
  N  N76  1  0.46790317  0.65656580  0.39122419  1.0
  N  N77  1  0.48807366  0.55502085  0.08322856  1.0
  N  N78  1  0.51261797  0.21454493  0.83141373  1.0
  N  N79  1  0.60787699  0.20110014  0.53753119  1.0
  N  N80  1  0.61065878  0.93839058  0.36998832  1.0
  N  N81  1  0.62961564  0.75271915  0.88565528  1.0
  N  N82  1  0.64236744  0.77766349  0.61336359  1.0
  N  N83  1  0.64681956  0.19761250  0.45509703  1.0
  N  N84  1  0.65327852  0.45931917  0.33505841  1.0
  N  N85  1  0.66341818  0.17412944  0.17511674  1.0
  N  N86  1  0.68706324  0.99358603  0.34787648  1.0
  N  N87  1  0.73030750  0.52432479  0.12583757  1.0
  N  N88  1  0.75079579  0.00378507  0.77364408  1.0
  N  N89  1  0.75347822  0.97136684  0.03232901  1.0
  N  N90  1  0.75995719  0.44994286  0.36780026  1.0
  N  N91  1  0.77506364  0.09704762  0.80607928  1.0
  N  N92  1  0.78742977  0.73186556  0.41226646  1.0
  N  N93  1  0.82706280  0.53809531  0.15635073  1.0
  N  N94  1  0.83119693  0.50544951  0.90050002  1.0
  N  N95  1  0.85130918  0.33565149  0.59123820  1.0
  N  N96  1  0.86373768  0.78664734  0.38926456  1.0
  N  N97  1  0.90143843  0.56794007  0.94247488  1.0
  N  N98  1  0.93096690  0.90944428  0.62880879  1.0
  N  N99  1  0.99466093  0.49601053  0.42965144  1.0
