# generated using pymatgen
data_GaN
_symmetry_space_group_name_H-M   P1
_cell_length_a   13.05497689
_cell_length_b   13.30047825
_cell_length_c   13.35866475
_cell_angle_alpha   79.02945107
_cell_angle_beta   83.11349080
_cell_angle_gamma   83.86757256
_symmetry_Int_Tables_number   1
_chemical_formula_structural   GaN
_chemical_formula_sum   'Ga50 N50'
_cell_volume   2252.33239028
_cell_formula_units_Z   50
loop_
 _symmetry_equiv_pos_site_id
 _symmetry_equiv_pos_as_xyz
  1  'x, y, z'
loop_
 _atom_site_type_symbol
 _atom_site_label
 _atom_site_symmetry_multiplicity
 _atom_site_fract_x
 _atom_site_fract_y
 _atom_site_fract_z
 _atom_site_occupancy
  Ga  Ga0  1  0.00678022  0.33677872  0.22989799  1.0
  Ga  Ga1  1  0.01076679  0.85932121  0.25460754  1.0
  Ga  Ga2  1  0.01820590  0.76991349  0.98812763  1.0
  Ga  Ga3  1  0.01892361  0.67620518  0.54930523  1.0
  Ga  Ga4  1  0.02306017  0.00176280  0.40603129  1.0
  Ga  Ga5  1  0.02617636  0.76667491  0.78288538  1.0
  Ga  Ga6  1  0.09565380  0.15526413  0.27590638  1.0
  Ga  Ga7  1  0.10593153  0.37275193  0.02661974  1.0
  Ga  Ga8  1  0.11654551  0.65329222  0.36929372  1.0
  Ga  Ga9  1  0.12760315  0.68106852  0.14900295  1.0
  Ga  Ga10  1  0.14397543  0.47445393  0.18776248  1.0
  Ga  Ga11  1  0.16714092  0.57919658  0.97788900  1.0
  Ga  Ga12  1  0.18024117  0.83541416  0.41030626  1.0
  Ga  Ga13  1  0.18979781  0.20145586  0.45773090  1.0
  Ga  Ga14  1  0.22777494  0.01583218  0.42652380  1.0
  Ga  Ga15  1  0.25888873  0.77835343  0.22737213  1.0
  Ga  Ga16  1  0.28583947  0.64837798  0.80162642  1.0
  Ga  Ga17  1  0.33777689  0.17127166  0.17709493  1.0
  Ga  Ga18  1  0.36135853  0.35166448  0.04271673  1.0
  Ga  Ga19  1  0.38510512  0.55273913  0.97204188  1.0
  Ga  Ga20  1  0.38601879  0.89179338  0.36857932  1.0
  Ga  Ga21  1  0.39621909  0.11842125  0.38980362  1.0
  Ga  Ga22  1  0.41013848  0.91705278  0.16306670  1.0
  Ga  Ga23  1  0.42577636  0.69449060  0.31490639  1.0
  Ga  Ga24  1  0.51504905  0.05772182  0.21048797  1.0
  Ga  Ga25  1  0.52326421  0.76210996  0.45231686  1.0
  Ga  Ga26  1  0.60067746  0.96247699  0.39005666  1.0
  Ga  Ga27  1  0.60470135  0.59795685  0.36815136  1.0
  Ga  Ga28  1  0.61556439  0.86515289  0.21569517  1.0
  Ga  Ga29  1  0.62539792  0.20915405  0.08699997  1.0
  Ga  Ga30  1  0.66207566  0.81868856  0.54081090  1.0
  Ga  Ga31  1  0.67089492  0.40995221  0.42105653  1.0
  Ga  Ga32  1  0.72962267  0.74581060  0.34635990  1.0
  Ga  Ga33  1  0.79659980  0.30850823  0.99336076  1.0
  Ga  Ga34  1  0.80149374  0.73475173  0.65933204  1.0
  Ga  Ga35  1  0.80400109  0.31025352  0.53699597  1.0
  Ga  Ga36  1  0.82520097  0.42835722  0.12680373  1.0
  Ga  Ga37  1  0.83098010  0.38241134  0.79421497  1.0
  Ga  Ga38  1  0.83333214  0.49216942  0.59525299  1.0
  Ga  Ga39  1  0.83935077  0.69915907  0.86271624  1.0
  Ga  Ga40  1  0.85210306  0.86930566  0.42525360  1.0
  Ga  Ga41  1  0.85480357  0.43736223  0.31967321  1.0
  Ga  Ga42  1  0.86143368  0.07237972  0.53618625  1.0
  Ga  Ga43  1  0.89611962  0.63053237  0.26690506  1.0
  Ga  Ga44  1  0.91758718  0.60434149  0.06145006  1.0
  Ga  Ga45  1  0.92347677  0.48750996  0.91426774  1.0
  Ga  Ga46  1  0.93510263  0.57317525  0.72276909  1.0
  Ga  Ga47  1  0.97382238  0.24697038  0.06118154  1.0
  Ga  Ga48  1  0.97952059  0.24044704  0.43022379  1.0
  Ga  Ga49  1  0.99154862  0.88443274  0.60589747  1.0
  N  N50  1  0.00343580  0.26301854  0.75007141  1.0
  N  N51  1  0.01572495  0.70522115  0.26633766  1.0
  N  N52  1  0.03405286  0.51581147  0.99257425  1.0
  N  N53  1  0.03602371  0.42479616  0.54071701  1.0
  N  N54  1  0.07661686  0.23454621  0.70802810  1.0
  N  N55  1  0.10290707  0.43308793  0.47948307  1.0
  N  N56  1  0.13632932  0.78816038  0.56368520  1.0
  N  N57  1  0.15356351  0.44531165  0.71778145  1.0
  N  N58  1  0.16977262  0.08237330  0.05594509  1.0
  N  N59  1  0.17534902  0.00638285  0.72937932  1.0
  N  N60  1  0.17550672  0.73519924  0.72597841  1.0
  N  N61  1  0.17637597  0.00221919  0.04048728  1.0
  N  N62  1  0.19759306  0.45446080  0.78174686  1.0
  N  N63  1  0.20540375  0.75494496  0.62765118  1.0
  N  N64  1  0.21210630  0.00249294  0.80115751  1.0
  N  N65  1  0.22719810  0.43698666  0.05676784  1.0
  N  N66  1  0.24097811  0.13569850  0.29649255  1.0
  N  N67  1  0.29039406  0.24343071  0.87752947  1.0
  N  N68  1  0.29286705  0.22320128  0.80003199  1.0
  N  N69  1  0.31897847  0.57658166  0.52141100  1.0
  N  N70  1  0.32854644  0.43268487  0.30861977  1.0
  N  N71  1  0.34159557  0.39811452  0.38949869  1.0
  N  N72  1  0.34862839  0.52048310  0.58687330  1.0
  N  N73  1  0.35787074  0.80218428  0.95819610  1.0
  N  N74  1  0.36494375  0.81648499  0.87257446  1.0
  N  N75  1  0.39628249  0.96097120  0.62873607  1.0
  N  N76  1  0.41200690  0.87563296  0.64311830  1.0
  N  N77  1  0.45173369  0.04967486  0.89072463  1.0
  N  N78  1  0.47257213  0.02327384  0.81611430  1.0
  N  N79  1  0.50803329  0.32916465  0.74435887  1.0
  N  N80  1  0.52513736  0.61574912  0.66284389  1.0
  N  N81  1  0.54371063  0.65039112  0.08707812  1.0
  N  N82  1  0.56560878  0.72969736  0.05369820  1.0
  N  N83  1  0.56607328  0.31677324  0.18746340  1.0
  N  N84  1  0.57595395  0.27696807  0.77036540  1.0
  N  N85  1  0.57612826  0.31626970  0.27439980  1.0
  N  N86  1  0.58047680  0.54567231  0.66214624  1.0
  N  N87  1  0.58251860  0.31505025  0.36245655  1.0
  N  N88  1  0.62637992  0.58716317  0.88552880  1.0
  N  N89  1  0.64287040  0.50497643  0.87631804  1.0
  N  N90  1  0.70155268  0.03561555  0.85800857  1.0
  N  N91  1  0.70989268  0.98605853  0.79858579  1.0
  N  N92  1  0.73249201  0.89578428  0.07714904  1.0
  N  N93  1  0.78964924  0.13097929  0.30040888  1.0
  N  N94  1  0.79152008  0.11614946  0.22054324  1.0
  N  N95  1  0.82372854  0.88476083  0.07072518  1.0
  N  N96  1  0.90916147  0.79036608  0.54976480  1.0
  N  N97  1  0.91613715  0.87626344  0.06487610  1.0
  N  N98  1  0.92970605  0.04862884  0.82880713  1.0
  N  N99  1  0.97119524  0.05105223  0.89634743  1.0
