# generated using pymatgen
data_GaN
_symmetry_space_group_name_H-M   P1
_cell_length_a   10.90028283
_cell_length_b   11.83776906
_cell_length_c   11.41627871
_cell_angle_alpha   90.42842987
_cell_angle_beta   92.59596628
_cell_angle_gamma   88.84105242
_symmetry_Int_Tables_number   1
_chemical_formula_structural   GaN
_chemical_formula_sum   'Ga50 N50'
_cell_volume   1471.25533413
_cell_formula_units_Z   50
loop_
 _symmetry_equiv_pos_site_id
 _symmetry_equiv_pos_as_xyz
  1  'x, y, z'
loop_
 _atom_site_type_symbol
 _atom_site_label
 _atom_site_symmetry_multiplicity
 _atom_site_fract_x
 _atom_site_fract_y
 _atom_site_fract_z
 _atom_site_occupancy
  Ga  Ga0  1  0.03846335  0.28429760  0.20486382  1.0
  Ga  Ga1  1  0.05304264  0.82430641  0.57150811  1.0
  Ga  Ga2  1  0.07962606  0.49322337  0.56135785  1.0
  Ga  Ga3  1  0.11831239  0.86852795  0.36334845  1.0
  Ga  Ga4  1  0.14365267  0.87031622  0.03914609  1.0
  Ga  Ga5  1  0.17593697  0.25040806  0.69127719  1.0
  Ga  Ga6  1  0.18106431  0.14693860  0.47298067  1.0
  Ga  Ga7  1  0.18593541  0.72980105  0.73924815  1.0
  Ga  Ga8  1  0.18960069  0.06109946  0.23155975  1.0
  Ga  Ga9  1  0.19040167  0.94495307  0.77290213  1.0
  Ga  Ga10  1  0.19523301  0.36129126  0.06626075  1.0
  Ga  Ga11  1  0.20833852  0.60598256  0.02064398  1.0
  Ga  Ga12  1  0.22982911  0.14816996  0.97137914  1.0
  Ga  Ga13  1  0.25925750  0.51101461  0.76604453  1.0
  Ga  Ga14  1  0.31082251  0.93052664  0.57306930  1.0
  Ga  Ga15  1  0.34088582  0.26760140  0.33411107  1.0
  Ga  Ga16  1  0.36230463  0.65558618  0.53221905  1.0
  Ga  Ga17  1  0.36522554  0.80661433  0.88248437  1.0
  Ga  Ga18  1  0.36891699  0.36573270  0.55156839  1.0
  Ga  Ga19  1  0.40682551  0.91780450  0.34930100  1.0
  Ga  Ga20  1  0.40850862  0.49385276  0.02498629  1.0
  Ga  Ga21  1  0.41323264  0.80249394  0.16273249  1.0
  Ga  Ga22  1  0.43984739  0.13314260  0.73817028  1.0
  Ga  Ga23  1  0.44237371  0.30477222  0.87543240  1.0
  Ga  Ga24  1  0.48330130  0.29419473  0.09291142  1.0
  Ga  Ga25  1  0.50496928  0.57571905  0.76510535  1.0
  Ga  Ga26  1  0.52635524  0.89383929  0.75988505  1.0
  Ga  Ga27  1  0.53543813  0.44406024  0.37512098  1.0
  Ga  Ga28  1  0.55308218  0.04666121  0.50535623  1.0
  Ga  Ga29  1  0.56305891  0.11861371  0.28155930  1.0
  Ga  Ga30  1  0.59735408  0.61344657  0.02400194  1.0
  Ga  Ga31  1  0.59936135  0.80070270  0.51286791  1.0
  Ga  Ga32  1  0.66401233  0.67790434  0.23778894  1.0
  Ga  Ga33  1  0.67906697  0.89730225  0.07122016  1.0
  Ga  Ga34  1  0.68947111  0.24795565  0.44109968  1.0
  Ga  Ga35  1  0.72353746  0.13476118  0.09013998  1.0
  Ga  Ga36  1  0.72759558  0.49975315  0.58817541  1.0
  Ga  Ga37  1  0.73300618  0.39507189  0.21012682  1.0
  Ga  Ga38  1  0.74298115  0.91572900  0.33360792  1.0
  Ga  Ga39  1  0.74663281  0.73179475  0.81334353  1.0
  Ga  Ga40  1  0.79793645  0.89345404  0.62712951  1.0
  Ga  Ga41  1  0.86014743  0.67519640  0.43662960  1.0
  Ga  Ga42  1  0.87457156  0.90215021  0.91939585  1.0
  Ga  Ga43  1  0.90136546  0.45352731  0.41163446  1.0
  Ga  Ga44  1  0.91955024  0.53747024  0.15540449  1.0
  Ga  Ga45  1  0.92131790  0.60754575  0.68329087  1.0
  Ga  Ga46  1  0.92530060  0.84486946  0.16042632  1.0
  Ga  Ga47  1  0.94693101  0.14018535  0.05133902  1.0
  Ga  Ga48  1  0.96481224  0.24310072  0.58216665  1.0
  Ga  Ga49  1  0.98338992  0.64945964  0.91429441  1.0
  N  N50  1  0.00061119  0.07639541  0.61324180  1.0
  N  N51  1  0.01862598  0.36136149  0.83555716  1.0
  N  N52  1  0.03642116  0.55727884  0.04836715  1.0
  N  N53  1  0.09544049  0.92387423  0.19857019  1.0
  N  N54  1  0.11944806  0.00745973  0.92860397  1.0
  N  N55  1  0.13307914  0.68042347  0.38083124  1.0
  N  N56  1  0.14988198  0.61160931  0.85167215  1.0
  N  N57  1  0.16389616  0.20774984  0.31043913  1.0
  N  N58  1  0.18256956  0.62682830  0.45883791  1.0
  N  N59  1  0.19866962  0.48049918  0.24435961  1.0
  N  N60  1  0.21965892  0.40756458  0.63697786  1.0
  N  N61  1  0.24549554  0.98907159  0.40740925  1.0
  N  N62  1  0.25532097  0.44910439  0.32474056  1.0
  N  N63  1  0.29164935  0.77390974  0.03332262  1.0
  N  N64  1  0.29656331  0.19831281  0.81667068  1.0
  N  N65  1  0.32185140  0.09942895  0.12512742  1.0
  N  N66  1  0.34131011  0.65118518  0.70025681  1.0
  N  N67  1  0.40349947  0.64761400  0.26759991  1.0
  N  N68  1  0.40369054  0.17160450  0.18267875  1.0
  N  N69  1  0.40781590  0.46212651  0.84883234  1.0
  N  N70  1  0.41976890  0.80368187  0.48694545  1.0
  N  N71  1  0.45828352  0.00198920  0.64203257  1.0
  N  N72  1  0.46754980  0.51021650  0.52300569  1.0
  N  N73  1  0.48820224  0.25165102  0.62473102  1.0
  N  N74  1  0.49926733  0.59962875  0.27729854  1.0
  N  N75  1  0.56015909  0.02943368  0.86962300  1.0
  N  N76  1  0.56086650  0.53525879  0.61145488  1.0
  N  N77  1  0.56340870  0.20911682  0.54979863  1.0
  N  N78  1  0.58153468  0.76444546  0.10981751  1.0
  N  N79  1  0.60400079  0.03065690  0.96998733  1.0
  N  N80  1  0.62844087  0.63456108  0.86730979  1.0
  N  N81  1  0.64376898  0.26460049  0.16529347  1.0
  N  N82  1  0.65504666  0.81146922  0.68318425  1.0
  N  N83  1  0.67258772  0.00903365  0.20678677  1.0
  N  N84  1  0.69697338  0.95015086  0.49265604  1.0
  N  N85  1  0.69922886  0.38669255  0.86840223  1.0
  N  N86  1  0.70498821  0.75230690  0.37910865  1.0
  N  N87  1  0.71600225  0.41599049  0.42929800  1.0
  N  N88  1  0.73601323  0.55408517  0.14963551  1.0
  N  N89  1  0.75623589  0.38524605  0.95378702  1.0
  N  N90  1  0.76672873  0.12814588  0.77577496  1.0
  N  N91  1  0.78562534  0.20703108  0.72809761  1.0
  N  N92  1  0.88978672  0.15203906  0.36166103  1.0
  N  N93  1  0.89643415  0.75286881  0.58668825  1.0
  N  N94  1  0.90503294  0.05771541  0.35124862  1.0
  N  N95  1  0.91292081  0.39837771  0.24776832  1.0
  N  N96  1  0.96918514  0.98077663  0.62755260  1.0
  N  N97  1  0.97703378  0.31584146  0.91057325  1.0
  N  N98  1  0.98996773  0.79566962  0.00250477  1.0
  N  N99  1  0.99117866  0.03737854  0.93176969  1.0
