# generated using pymatgen
data_GaN
_symmetry_space_group_name_H-M   P1
_cell_length_a   12.37341840
_cell_length_b   13.07800722
_cell_length_c   15.26221636
_cell_angle_alpha   93.00948347
_cell_angle_beta   90.50370001
_cell_angle_gamma   93.88745740
_symmetry_Int_Tables_number   1
_chemical_formula_structural   GaN
_chemical_formula_sum   'Ga50 N50'
_cell_volume   2460.45677521
_cell_formula_units_Z   50
loop_
 _symmetry_equiv_pos_site_id
 _symmetry_equiv_pos_as_xyz
  1  'x, y, z'
loop_
 _atom_site_type_symbol
 _atom_site_label
 _atom_site_symmetry_multiplicity
 _atom_site_fract_x
 _atom_site_fract_y
 _atom_site_fract_z
 _atom_site_occupancy
  Ga  Ga0  1  0.00531980  0.93564874  0.64304728  1.0
  Ga  Ga1  1  0.02478378  0.86711268  0.86793736  1.0
  Ga  Ga2  1  0.03193382  0.23517150  0.65070793  1.0
  Ga  Ga3  1  0.09628040  0.06091205  0.76309959  1.0
  Ga  Ga4  1  0.11858308  0.53213464  0.63078848  1.0
  Ga  Ga5  1  0.13022518  0.46348094  0.78327693  1.0
  Ga  Ga6  1  0.15061722  0.60603264  0.91815314  1.0
  Ga  Ga7  1  0.17935602  0.40542544  0.95600752  1.0
  Ga  Ga8  1  0.18847363  0.80716178  0.96676484  1.0
  Ga  Ga9  1  0.18924733  0.27999873  0.78611411  1.0
  Ga  Ga10  1  0.19705978  0.35713166  0.60178700  1.0
  Ga  Ga11  1  0.22735939  0.25137871  0.05465761  1.0
  Ga  Ga12  1  0.24090263  0.99594026  0.87261007  1.0
  Ga  Ga13  1  0.30505600  0.19848361  0.89768656  1.0
  Ga  Ga14  1  0.30901137  0.10744465  0.73310093  1.0
  Ga  Ga15  1  0.35077229  0.07390870  0.03052745  1.0
  Ga  Ga16  1  0.36660248  0.25684551  0.63942589  1.0
  Ga  Ga17  1  0.38099510  0.85734125  0.90506299  1.0
  Ga  Ga18  1  0.39374281  0.95396177  0.37886195  1.0
  Ga  Ga19  1  0.41674592  0.49334285  0.29005693  1.0
  Ga  Ga20  1  0.43213768  0.47654208  0.64653921  1.0
  Ga  Ga21  1  0.45651733  0.14555211  0.51918207  1.0
  Ga  Ga22  1  0.45838079  0.96232570  0.75433959  1.0
  Ga  Ga23  1  0.49657588  0.75677790  0.61968883  1.0
  Ga  Ga24  1  0.56620589  0.94431037  0.55801860  1.0
  Ga  Ga25  1  0.57220614  0.57693161  0.19128984  1.0
  Ga  Ga26  1  0.58346198  0.75720427  0.46283238  1.0
  Ga  Ga27  1  0.58613296  0.89749594  0.90030886  1.0
  Ga  Ga28  1  0.60614274  0.29120756  0.72044969  1.0
  Ga  Ga29  1  0.63459156  0.09395880  0.74297488  1.0
  Ga  Ga30  1  0.63637941  0.79657571  0.74685705  1.0
  Ga  Ga31  1  0.64244669  0.76530974  0.26749277  1.0
  Ga  Ga32  1  0.67020695  0.18089195  0.57269536  1.0
  Ga  Ga33  1  0.68123023  0.66335997  0.06370129  1.0
  Ga  Ga34  1  0.71581489  0.86219518  0.10705828  1.0
  Ga  Ga35  1  0.74562268  0.76152420  0.90656162  1.0
  Ga  Ga36  1  0.74647069  0.43013741  0.79238483  1.0
  Ga  Ga37  1  0.74763315  0.77393672  0.58818708  1.0
  Ga  Ga38  1  0.75694651  0.55365151  0.93186376  1.0
  Ga  Ga39  1  0.76181811  0.05015032  0.04772500  1.0
  Ga  Ga40  1  0.78023095  0.99536506  0.88201154  1.0
  Ga  Ga41  1  0.81521564  0.00082416  0.66106806  1.0
  Ga  Ga42  1  0.82585766  0.62395610  0.77718082  1.0
  Ga  Ga43  1  0.85903006  0.81734056  0.74557068  1.0
  Ga  Ga44  1  0.92469716  0.16681784  0.79428848  1.0
  Ga  Ga45  1  0.92588143  0.37611296  0.73219695  1.0
  Ga  Ga46  1  0.95742569  0.50960421  0.88646812  1.0
  Ga  Ga47  1  0.96856774  0.74204338  0.60136717  1.0
  Ga  Ga48  1  0.96995654  0.51431150  0.48135015  1.0
  Ga  Ga49  1  0.98655854  0.31260633  0.90627830  1.0
  N  N50  1  0.02049828  0.06820362  0.23219753  1.0
  N  N51  1  0.02736819  0.61541605  0.57166093  1.0
  N  N52  1  0.05253741  0.04499553  0.03536405  1.0
  N  N53  1  0.07289072  0.87021810  0.37407502  1.0
  N  N54  1  0.07345493  0.46489671  0.21661871  1.0
  N  N55  1  0.08284416  0.27093400  0.34043233  1.0
  N  N56  1  0.09556618  0.87744838  0.30411875  1.0
  N  N57  1  0.11014422  0.54443465  0.21167237  1.0
  N  N58  1  0.12082912  0.08431735  0.47757758  1.0
  N  N59  1  0.14540911  0.32434183  0.37458957  1.0
  N  N60  1  0.20452282  0.09327990  0.45096416  1.0
  N  N61  1  0.23657166  0.83919663  0.58126996  1.0
  N  N62  1  0.24988311  0.83657175  0.50895614  1.0
  N  N63  1  0.26851377  0.73131353  0.28468023  1.0
  N  N64  1  0.30397934  0.68238001  0.33369374  1.0
  N  N65  1  0.32948462  0.60927433  0.09847844  1.0
  N  N66  1  0.41519043  0.61124460  0.12530012  1.0
  N  N67  1  0.42237732  0.62572106  0.82835358  1.0
  N  N68  1  0.42782279  0.85773246  0.16150090  1.0
  N  N69  1  0.43854382  0.42820526  0.95268501  1.0
  N  N70  1  0.46000256  0.25937822  0.29464776  1.0
  N  N71  1  0.47174671  0.01095196  0.48079699  1.0
  N  N72  1  0.48184233  0.35033396  0.68396825  1.0
  N  N73  1  0.49782158  0.81486403  0.18608578  1.0
  N  N74  1  0.50025987  0.27315929  0.23065721  1.0
  N  N75  1  0.50070455  0.59790156  0.85114519  1.0
  N  N76  1  0.50748084  0.42896558  0.00048907  1.0
  N  N77  1  0.55254673  0.05616990  0.24100411  1.0
  N  N78  1  0.56782393  0.44928222  0.41254390  1.0
  N  N79  1  0.60740992  0.17869391  0.99895561  1.0
  N  N80  1  0.60981017  0.24200232  0.95241601  1.0
  N  N81  1  0.63392925  0.46936021  0.36506057  1.0
  N  N82  1  0.63984573  0.04095037  0.24770913  1.0
  N  N83  1  0.67673064  0.04226115  0.61553198  1.0
  N  N84  1  0.70431010  0.48356474  0.59707521  1.0
  N  N85  1  0.74420732  0.53432547  0.54813995  1.0
  N  N86  1  0.74587830  0.35943976  0.14437803  1.0
  N  N87  1  0.78579255  0.03213847  0.41622318  1.0
  N  N88  1  0.79187881  0.07651341  0.77776254  1.0
  N  N89  1  0.80664644  0.28878957  0.38801715  1.0
  N  N90  1  0.81645709  0.40852434  0.12226768  1.0
  N  N91  1  0.81679430  0.25569605  0.32004106  1.0
  N  N92  1  0.84848560  0.97480135  0.41506813  1.0
  N  N93  1  0.86328724  0.86985956  0.87621859  1.0
  N  N94  1  0.87067725  0.71346350  0.33118177  1.0
  N  N95  1  0.88297695  0.65713919  0.11596280  1.0
  N  N96  1  0.93137375  0.04948047  0.23132303  1.0
  N  N97  1  0.93528339  0.65802481  0.32771771  1.0
  N  N98  1  0.96999506  0.66953383  0.09748450  1.0
  N  N99  1  0.98997233  0.10026180  0.02207918  1.0
