# generated using pymatgen
data_GaP
_symmetry_space_group_name_H-M   Imm2
_cell_length_a   2.88141400
_cell_length_b   3.70784255
_cell_length_c   3.70784255
_cell_angle_alpha   78.81376662
_cell_angle_beta   67.13527826
_cell_angle_gamma   67.13527827
_symmetry_Int_Tables_number   44
_chemical_formula_structural   GaP
_chemical_formula_sum   'Ga1 P1'
_cell_volume   33.58998068
_cell_formula_units_Z   1
loop_
 _symmetry_equiv_pos_site_id
 _symmetry_equiv_pos_as_xyz
  1  'x, y, z'
  2  'x+y+z, -y, -z'
  3  'x, z, y'
  4  'x+y+z, -z, -y'
loop_
 _atom_site_type_symbol
 _atom_site_label
 _atom_site_symmetry_multiplicity
 _atom_site_fract_x
 _atom_site_fract_y
 _atom_site_fract_z
 _atom_site_occupancy
  Ga  Ga0  1  0.37639100  0.50000000  0.50000000  1.0
  P  P1  1  0.04342700  0.00000000  0.00000000  1.0
