# generated using pymatgen
data_GaSb
_symmetry_space_group_name_H-M   P1
_cell_length_a   13.46586277
_cell_length_b   14.22523293
_cell_length_c   14.27182898
_cell_angle_alpha   89.34797498
_cell_angle_beta   85.53735489
_cell_angle_gamma   87.17780884
_symmetry_Int_Tables_number   1
_chemical_formula_structural   GaSb
_chemical_formula_sum   'Ga50 Sb50'
_cell_volume   2722.16850794
_cell_formula_units_Z   50
loop_
 _symmetry_equiv_pos_site_id
 _symmetry_equiv_pos_as_xyz
  1  'x, y, z'
loop_
 _atom_site_type_symbol
 _atom_site_label
 _atom_site_symmetry_multiplicity
 _atom_site_fract_x
 _atom_site_fract_y
 _atom_site_fract_z
 _atom_site_occupancy
  Ga  Ga0  1  0.01260833  0.60530632  0.52514944  1.0
  Ga  Ga1  1  0.01742807  0.49071843  0.02221513  1.0
  Ga  Ga2  1  0.02229345  0.93373888  0.85598191  1.0
  Ga  Ga3  1  0.02715466  0.32091081  0.63722168  1.0
  Ga  Ga4  1  0.11330552  0.54923425  0.66841232  1.0
  Ga  Ga5  1  0.13209386  0.42458847  0.33098168  1.0
  Ga  Ga6  1  0.14402014  0.40735722  0.51307677  1.0
  Ga  Ga7  1  0.14874617  0.93529547  0.64067003  1.0
  Ga  Ga8  1  0.18259878  0.79248564  0.31909659  1.0
  Ga  Ga9  1  0.21479846  0.89995284  0.81553856  1.0
  Ga  Ga10  1  0.21944889  0.18013693  0.17928742  1.0
  Ga  Ga11  1  0.24908633  0.08854048  0.40084127  1.0
  Ga  Ga12  1  0.25277234  0.93338968  0.11068494  1.0
  Ga  Ga13  1  0.26236924  0.27793546  0.33178865  1.0
  Ga  Ga14  1  0.30997599  0.75539452  0.01330119  1.0
  Ga  Ga15  1  0.31054672  0.47510999  0.24594380  1.0
  Ga  Ga16  1  0.31082817  0.98133661  0.94222840  1.0
  Ga  Ga17  1  0.32869161  0.55280213  0.50966381  1.0
  Ga  Ga18  1  0.38361162  0.62474461  0.15801331  1.0
  Ga  Ga19  1  0.44435827  0.08802098  0.40995636  1.0
  Ga  Ga20  1  0.45272966  0.60911924  0.97229333  1.0
  Ga  Ga21  1  0.48809768  0.43515655  0.06889913  1.0
  Ga  Ga22  1  0.52280548  0.09855621  0.09064465  1.0
  Ga  Ga23  1  0.63403166  0.79706396  0.89614624  1.0
  Ga  Ga24  1  0.64380609  0.97417360  0.56445304  1.0
  Ga  Ga25  1  0.65950946  0.70183605  0.05046961  1.0
  Ga  Ga26  1  0.66165358  0.14894490  0.23397349  1.0
  Ga  Ga27  1  0.66884866  0.42585147  0.17323687  1.0
  Ga  Ga28  1  0.67623817  0.10154394  0.93473915  1.0
  Ga  Ga29  1  0.70930526  0.93819752  0.76027070  1.0
  Ga  Ga30  1  0.70981725  0.31685177  0.54342969  1.0
  Ga  Ga31  1  0.71482563  0.25086142  0.07767009  1.0
  Ga  Ga32  1  0.72452658  0.84465050  0.43943312  1.0
  Ga  Ga33  1  0.72533310  0.17151837  0.77164815  1.0
  Ga  Ga34  1  0.74152597  0.01326640  0.08720235  1.0
  Ga  Ga35  1  0.74754933  0.57926596  0.82722250  1.0
  Ga  Ga36  1  0.75936777  0.10584527  0.46287718  1.0
  Ga  Ga37  1  0.79511342  0.37849785  0.29086871  1.0
  Ga  Ga38  1  0.80603179  0.75957575  0.76016324  1.0
  Ga  Ga39  1  0.80913508  0.00924232  0.29551434  1.0
  Ga  Ga40  1  0.81436547  0.05971002  0.63877031  1.0
  Ga  Ga41  1  0.82078972  0.55108959  0.54968679  1.0
  Ga  Ga42  1  0.83951080  0.20659399  0.31349958  1.0
  Ga  Ga43  1  0.85131944  0.29587603  0.87895208  1.0
  Ga  Ga44  1  0.88546123  0.56726202  0.36669384  1.0
  Ga  Ga45  1  0.91800981  0.76511873  0.54607068  1.0
  Ga  Ga46  1  0.92965272  0.97305423  0.14084391  1.0
  Ga  Ga47  1  0.94792408  0.61999150  0.79621539  1.0
  Ga  Ga48  1  0.99653672  0.15253735  0.21901262  1.0
  Ga  Ga49  1  0.99856756  0.74496121  0.92400024  1.0
  Sb  Sb50  1  0.02837950  0.42801388  0.82556884  1.0
  Sb  Sb51  1  0.03710601  0.70136722  0.21813867  1.0
  Sb  Sb52  1  0.06786126  0.29206998  0.08139268  1.0
  Sb  Sb53  1  0.07814719  0.84062882  0.07065054  1.0
  Sb  Sb54  1  0.07974016  0.11543444  0.89479412  1.0
  Sb  Sb55  1  0.13348861  0.01219368  0.26444672  1.0
  Sb  Sb56  1  0.13792843  0.13339957  0.57611006  1.0
  Sb  Sb57  1  0.17532215  0.60473179  0.39569789  1.0
  Sb  Sb58  1  0.17832512  0.59604584  0.07512621  1.0
  Sb  Sb59  1  0.17934807  0.59926939  0.84563125  1.0
  Sb  Sb60  1  0.25283232  0.88595952  0.47628703  1.0
  Sb  Sb61  1  0.25663988  0.08919778  0.73841368  1.0
  Sb  Sb62  1  0.27163578  0.39283330  0.06688645  1.0
  Sb  Sb63  1  0.29282734  0.41766917  0.66406186  1.0
  Sb  Sb64  1  0.32582070  0.73970258  0.76345004  1.0
  Sb  Sb65  1  0.34043453  0.16813360  0.00217362  1.0
  Sb  Sb66  1  0.35316357  0.46983965  0.88270550  1.0
  Sb  Sb67  1  0.36329541  0.80889701  0.21303657  1.0
  Sb  Sb68  1  0.36901502  0.30489523  0.49423583  1.0
  Sb  Sb69  1  0.37717846  0.73662397  0.56016409  1.0
  Sb  Sb70  1  0.38397929  0.24375873  0.80382514  1.0
  Sb  Sb71  1  0.40478065  0.99870774  0.59535825  1.0
  Sb  Sb72  1  0.46488009  0.44966710  0.37599361  1.0
  Sb  Sb73  1  0.49109161  0.50137849  0.65296331  1.0
  Sb  Sb74  1  0.51058771  0.30083646  0.22810606  1.0
  Sb  Sb75  1  0.51313068  0.83672152  0.68003192  1.0
  Sb  Sb76  1  0.51828516  0.96766123  0.91691588  1.0
  Sb  Sb77  1  0.53123748  0.09387041  0.73588693  1.0
  Sb  Sb78  1  0.54297507  0.27406337  0.94855167  1.0
  Sb  Sb79  1  0.55640521  0.64240427  0.79690261  1.0
  Sb  Sb80  1  0.56619084  0.18212751  0.52773050  1.0
  Sb  Sb81  1  0.58487714  0.60371103  0.20393540  1.0
  Sb  Sb82  1  0.58914279  0.88680698  0.14520961  1.0
  Sb  Sb83  1  0.60241552  0.97279943  0.32700110  1.0
  Sb  Sb84  1  0.64213167  0.35135361  0.72696163  1.0
  Sb  Sb85  1  0.68580725  0.47122987  0.43541036  1.0
  Sb  Sb86  1  0.70490225  0.42975572  0.97063351  1.0
  Sb  Sb87  1  0.72006577  0.71872577  0.59535187  1.0
  Sb  Sb88  1  0.72709167  0.68980313  0.31886412  1.0
  Sb  Sb89  1  0.80562072  0.79304491  0.15310343  1.0
  Sb  Sb90  1  0.82830351  0.89210197  0.93326670  1.0
  Sb  Sb91  1  0.83447894  0.44195277  0.70854801  1.0
  Sb  Sb92  1  0.84514820  0.60241964  0.99510592  1.0
  Sb  Sb93  1  0.89988947  0.25161511  0.49504171  1.0
  Sb  Sb94  1  0.90961146  0.15615081  0.03713860  1.0
  Sb  Sb95  1  0.92669270  0.84970009  0.36951856  1.0
  Sb  Sb96  1  0.94555166  0.90472324  0.67633821  1.0
  Sb  Sb97  1  0.95979710  0.16799871  0.73930370  1.0
  Sb  Sb98  1  0.96990482  0.02406049  0.48167007  1.0
  Sb  Sb99  1  0.97479627  0.44923602  0.22396071  1.0
