# generated using pymatgen
data_GaSb
_symmetry_space_group_name_H-M   P1
_cell_length_a   13.46662878
_cell_length_b   13.51852348
_cell_length_c   15.05697931
_cell_angle_alpha   86.76280408
_cell_angle_beta   88.68002728
_cell_angle_gamma   92.55892348
_symmetry_Int_Tables_number   1
_chemical_formula_structural   GaSb
_chemical_formula_sum   'Ga50 Sb50'
_cell_volume   2733.10649867
_cell_formula_units_Z   50
loop_
 _symmetry_equiv_pos_site_id
 _symmetry_equiv_pos_as_xyz
  1  'x, y, z'
loop_
 _atom_site_type_symbol
 _atom_site_label
 _atom_site_symmetry_multiplicity
 _atom_site_fract_x
 _atom_site_fract_y
 _atom_site_fract_z
 _atom_site_occupancy
  Ga  Ga0  1  0.00283197  0.28109602  0.51104898  1.0
  Ga  Ga1  1  0.02659048  0.57871374  0.21488325  1.0
  Ga  Ga2  1  0.03730845  0.70171094  0.57222807  1.0
  Ga  Ga3  1  0.05697089  0.30594794  0.16717683  1.0
  Ga  Ga4  1  0.06208980  0.65765966  0.99271117  1.0
  Ga  Ga5  1  0.07019336  0.02901673  0.54368458  1.0
  Ga  Ga6  1  0.07358303  0.47261959  0.07394377  1.0
  Ga  Ga7  1  0.09855201  0.37726309  0.67245887  1.0
  Ga  Ga8  1  0.09910771  0.31670003  0.95960784  1.0
  Ga  Ga9  1  0.12537190  0.14286085  0.89537894  1.0
  Ga  Ga10  1  0.18487184  0.60643428  0.51098838  1.0
  Ga  Ga11  1  0.19925568  0.93258716  0.29877420  1.0
  Ga  Ga12  1  0.23208367  0.58110730  0.16379054  1.0
  Ga  Ga13  1  0.34013614  0.86808738  0.74853905  1.0
  Ga  Ga14  1  0.34933707  0.37332275  0.55443894  1.0
  Ga  Ga15  1  0.39043623  0.21433904  0.37539154  1.0
  Ga  Ga16  1  0.39468698  0.59023686  0.27266554  1.0
  Ga  Ga17  1  0.40147819  0.52958728  0.44123838  1.0
  Ga  Ga18  1  0.40411708  0.42601854  0.16783915  1.0
  Ga  Ga19  1  0.41577859  0.79992145  0.59454352  1.0
  Ga  Ga20  1  0.47053135  0.23239783  0.93878591  1.0
  Ga  Ga21  1  0.49922532  0.25209512  0.17391148  1.0
  Ga  Ga22  1  0.50227602  0.48313911  0.76219791  1.0
  Ga  Ga23  1  0.51572382  0.71269808  0.46314025  1.0
  Ga  Ga24  1  0.54318239  0.36202941  0.31936316  1.0
  Ga  Ga25  1  0.62973872  0.67806595  0.32746433  1.0
  Ga  Ga26  1  0.63352321  0.86935193  0.49350549  1.0
  Ga  Ga27  1  0.63535310  0.07057576  0.67454911  1.0
  Ga  Ga28  1  0.65858650  0.60352453  0.91650032  1.0
  Ga  Ga29  1  0.66045587  0.81093607  0.15032758  1.0
  Ga  Ga30  1  0.66513404  0.26443966  0.91686794  1.0
  Ga  Ga31  1  0.66567292  0.25553701  0.63947934  1.0
  Ga  Ga32  1  0.67270520  0.82660839  0.77007629  1.0
  Ga  Ga33  1  0.70694345  0.04590685  0.29135453  1.0
  Ga  Ga34  1  0.75468435  0.32279553  0.41543439  1.0
  Ga  Ga35  1  0.78058140  0.95184138  0.65101629  1.0
  Ga  Ga36  1  0.78581268  0.12082775  0.90158781  1.0
  Ga  Ga37  1  0.81018351  0.95081146  0.16524840  1.0
  Ga  Ga38  1  0.81529175  0.17509824  0.52892770  1.0
  Ga  Ga39  1  0.81856019  0.43714807  0.54226315  1.0
  Ga  Ga40  1  0.85857335  0.10680161  0.72974058  1.0
  Ga  Ga41  1  0.87465711  0.75170009  0.97817957  1.0
  Ga  Ga42  1  0.87842032  0.29832402  0.66172350  1.0
  Ga  Ga43  1  0.88788644  0.58856892  0.62624457  1.0
  Ga  Ga44  1  0.88991983  0.13166056  0.32897666  1.0
  Ga  Ga45  1  0.89381923  0.45564765  0.77534283  1.0
  Ga  Ga46  1  0.93153756  0.82890238  0.65872629  1.0
  Ga  Ga47  1  0.93198689  0.85203120  0.83160864  1.0
  Ga  Ga48  1  0.95690646  0.03593699  0.88176614  1.0
  Ga  Ga49  1  0.99936890  0.24318992  0.79693740  1.0
  Sb  Sb50  1  0.00848232  0.99056850  0.24236105  1.0
  Sb  Sb51  1  0.05506827  0.12650725  0.08576446  1.0
  Sb  Sb52  1  0.07377928  0.80676383  0.12824176  1.0
  Sb  Sb53  1  0.11266831  0.73831325  0.31740140  1.0
  Sb  Sb54  1  0.12070950  0.16938916  0.38773624  1.0
  Sb  Sb55  1  0.13898396  0.43373095  0.43033911  1.0
  Sb  Sb56  1  0.14060472  0.88678316  0.87452038  1.0
  Sb  Sb57  1  0.15810695  0.68899759  0.76177912  1.0
  Sb  Sb58  1  0.18699714  0.85408874  0.58506576  1.0
  Sb  Sb59  1  0.19388521  0.01956415  0.71679947  1.0
  Sb  Sb60  1  0.20200862  0.21969788  0.56476926  1.0
  Sb  Sb61  1  0.22095864  0.35557415  0.26580440  1.0
  Sb  Sb62  1  0.25995427  0.44898819  0.97751674  1.0
  Sb  Sb63  1  0.27821477  0.02451745  0.44038494  1.0
  Sb  Sb64  1  0.28536871  0.04636622  0.94979142  1.0
  Sb  Sb65  1  0.29646999  0.89216468  0.14131765  1.0
  Sb  Sb66  1  0.31086907  0.72307275  0.89669663  1.0
  Sb  Sb67  1  0.31129885  0.59352667  0.65472327  1.0
  Sb  Sb68  1  0.31541391  0.39423236  0.73846890  1.0
  Sb  Sb69  1  0.31724836  0.73533307  0.41597382  1.0
  Sb  Sb70  1  0.31766680  0.25463681  0.06400713  1.0
  Sb  Sb71  1  0.38160603  0.14640914  0.78946117  1.0
  Sb  Sb72  1  0.42609637  0.61595121  0.05886113  1.0
  Sb  Sb73  1  0.46116216  0.05160671  0.13030140  1.0
  Sb  Sb74  1  0.46766124  0.78790540  0.22334883  1.0
  Sb  Sb75  1  0.49104523  0.68739407  0.78221783  1.0
  Sb  Sb76  1  0.50396045  0.00422695  0.54854579  1.0
  Sb  Sb77  1  0.50515868  0.98010667  0.31239332  1.0
  Sb  Sb78  1  0.51556276  0.98253408  0.80519962  1.0
  Sb  Sb79  1  0.51632354  0.45291128  0.95803192  1.0
  Sb  Sb80  1  0.55395012  0.36026387  0.51426390  1.0
  Sb  Sb81  1  0.56136208  0.56249384  0.58499754  1.0
  Sb  Sb82  1  0.60670607  0.15901110  0.41559721  1.0
  Sb  Sb83  1  0.61050884  0.01481548  0.97369716  1.0
  Sb  Sb84  1  0.64313644  0.59332681  0.13410107  1.0
  Sb  Sb85  1  0.65720336  0.35587031  0.07854542  1.0
  Sb  Sb86  1  0.67363190  0.80405127  0.96561752  1.0
  Sb  Sb87  1  0.68321355  0.39126455  0.76757814  1.0
  Sb  Sb88  1  0.70830162  0.49849730  0.30126454  1.0
  Sb  Sb89  1  0.72614973  0.71888424  0.61018470  1.0
  Sb  Sb90  1  0.76604665  0.84229568  0.34925042  1.0
  Sb  Sb91  1  0.81259633  0.65660746  0.79484948  1.0
  Sb  Sb92  1  0.84267613  0.15343199  0.07835876  1.0
  Sb  Sb93  1  0.84542834  0.54583779  0.04213653  1.0
  Sb  Sb94  1  0.86929214  0.31464380  0.23783802  1.0
  Sb  Sb95  1  0.87013105  0.71215959  0.17031907  1.0
  Sb  Sb96  1  0.87677000  0.98594479  0.48369504  1.0
  Sb  Sb97  1  0.90071958  0.34026436  0.93741896  1.0
  Sb  Sb98  1  0.92236666  0.70292358  0.41606954  1.0
  Sb  Sb99  1  0.93726234  0.48400876  0.37144091  1.0
