# generated using pymatgen
data_GaSb
_symmetry_space_group_name_H-M   P1
_cell_length_a   13.57445768
_cell_length_b   14.23332338
_cell_length_c   14.63641306
_cell_angle_alpha   94.35518111
_cell_angle_beta   93.93032176
_cell_angle_gamma   85.89725487
_symmetry_Int_Tables_number   1
_chemical_formula_structural   GaSb
_chemical_formula_sum   'Ga50 Sb50'
_cell_volume   2806.83641537
_cell_formula_units_Z   50
loop_
 _symmetry_equiv_pos_site_id
 _symmetry_equiv_pos_as_xyz
  1  'x, y, z'
loop_
 _atom_site_type_symbol
 _atom_site_label
 _atom_site_symmetry_multiplicity
 _atom_site_fract_x
 _atom_site_fract_y
 _atom_site_fract_z
 _atom_site_occupancy
  Ga  Ga0  1  0.00518430  0.28021575  0.18813355  1.0
  Ga  Ga1  1  0.03514215  0.03686922  0.54572022  1.0
  Ga  Ga2  1  0.03967149  0.25182031  0.55170022  1.0
  Ga  Ga3  1  0.05683833  0.81966397  0.99968204  1.0
  Ga  Ga4  1  0.07688907  0.82051636  0.57073418  1.0
  Ga  Ga5  1  0.08772915  0.04039485  0.00506115  1.0
  Ga  Ga6  1  0.11298075  0.53811720  0.70941928  1.0
  Ga  Ga7  1  0.12494949  0.07145376  0.37776255  1.0
  Ga  Ga8  1  0.13054193  0.93491150  0.84276628  1.0
  Ga  Ga9  1  0.14057188  0.12500679  0.19522466  1.0
  Ga  Ga10  1  0.18179224  0.12982544  0.66289980  1.0
  Ga  Ga11  1  0.20096926  0.92061101  0.47203197  1.0
  Ga  Ga12  1  0.23988807  0.70915407  0.06696517  1.0
  Ga  Ga13  1  0.26971438  0.39090881  0.59443274  1.0
  Ga  Ga14  1  0.27308148  0.98817113  0.28508092  1.0
  Ga  Ga15  1  0.29155395  0.98853751  0.94128612  1.0
  Ga  Ga16  1  0.29573119  0.69009184  0.58493320  1.0
  Ga  Ga17  1  0.32470068  0.54952442  0.69534693  1.0
  Ga  Ga18  1  0.34723805  0.39181692  0.43221263  1.0
  Ga  Ga19  1  0.36082264  0.40095435  0.87415159  1.0
  Ga  Ga20  1  0.36835445  0.43089183  0.09502778  1.0
  Ga  Ga21  1  0.39254785  0.63287349  0.28956715  1.0
  Ga  Ga22  1  0.40122907  0.05394374  0.17101637  1.0
  Ga  Ga23  1  0.40217103  0.89784607  0.39887800  1.0
  Ga  Ga24  1  0.40903333  0.72397072  0.75753417  1.0
  Ga  Ga25  1  0.41050134  0.82395579  0.56221689  1.0
  Ga  Ga26  1  0.42181722  0.80961267  0.20513813  1.0
  Ga  Ga27  1  0.48075637  0.42785298  0.62437486  1.0
  Ga  Ga28  1  0.50668865  0.22391056  0.18231252  1.0
  Ga  Ga29  1  0.52971014  0.07843717  0.32244257  1.0
  Ga  Ga30  1  0.57899678  0.98552146  0.59480766  1.0
  Ga  Ga31  1  0.58087482  0.66315950  0.33682257  1.0
  Ga  Ga32  1  0.60519161  0.67322301  0.88543159  1.0
  Ga  Ga33  1  0.61205288  0.34393533  0.89705934  1.0
  Ga  Ga34  1  0.62077133  0.35049558  0.39891328  1.0
  Ga  Ga35  1  0.66433831  0.48360751  0.64759140  1.0
  Ga  Ga36  1  0.70191074  0.53735318  0.25140094  1.0
  Ga  Ga37  1  0.71192782  0.48646029  0.47100939  1.0
  Ga  Ga38  1  0.74020974  0.06745262  0.42212784  1.0
  Ga  Ga39  1  0.79783711  0.81891152  0.69412665  1.0
  Ga  Ga40  1  0.84067728  0.59788213  0.14332054  1.0
  Ga  Ga41  1  0.84124114  0.06350761  0.06332890  1.0
  Ga  Ga42  1  0.85631236  0.70420745  0.55841583  1.0
  Ga  Ga43  1  0.86190915  0.41004788  0.20311169  1.0
  Ga  Ga44  1  0.87231966  0.19353535  0.47113505  1.0
  Ga  Ga45  1  0.87513774  0.47563050  0.82773322  1.0
  Ga  Ga46  1  0.90550014  0.18538300  0.83116788  1.0
  Ga  Ga47  1  0.91496581  0.76708919  0.18081437  1.0
  Ga  Ga48  1  0.95715998  0.12652194  0.29364598  1.0
  Ga  Ga49  1  0.96585060  0.63680370  0.80581407  1.0
  Sb  Sb50  1  0.07826166  0.45620972  0.53867893  1.0
  Sb  Sb51  1  0.10436924  0.66121439  0.17761611  1.0
  Sb  Sb52  1  0.11220287  0.75030616  0.75482361  1.0
  Sb  Sb53  1  0.13170208  0.64012610  0.45648026  1.0
  Sb  Sb54  1  0.16874259  0.47346515  0.88143205  1.0
  Sb  Sb55  1  0.18437693  0.37172636  0.14612858  1.0
  Sb  Sb56  1  0.22088413  0.52704265  0.29038998  1.0
  Sb  Sb57  1  0.22801538  0.20624036  0.47925576  1.0
  Sb  Sb58  1  0.23147366  0.77953434  0.32003598  1.0
  Sb  Sb59  1  0.25324729  0.90039468  0.10389441  1.0
  Sb  Sb60  1  0.25601144  0.65576772  0.88458183  1.0
  Sb  Sb61  1  0.27380565  0.16037299  0.05085563  1.0
  Sb  Sb62  1  0.28053929  0.94468774  0.69387885  1.0
  Sb  Sb63  1  0.31164040  0.26623640  0.27696079  1.0
  Sb  Sb64  1  0.31438983  0.26874942  0.72817769  1.0
  Sb  Sb65  1  0.37559769  0.04486955  0.54959923  1.0
  Sb  Sb66  1  0.42367514  0.61802941  0.09688472  1.0
  Sb  Sb67  1  0.44131913  0.56617064  0.49556611  1.0
  Sb  Sb68  1  0.45370279  0.27402806  0.99183583  1.0
  Sb  Sb69  1  0.45553843  0.81027825  0.94712148  1.0
  Sb  Sb70  1  0.46391268  0.96518931  0.82453878  1.0
  Sb  Sb71  1  0.48746550  0.42650771  0.26657797  1.0
  Sb  Sb72  1  0.49198556  0.23117809  0.45656536  1.0
  Sb  Sb73  1  0.50424585  0.50731574  0.81212318  1.0
  Sb  Sb74  1  0.51272442  0.23644725  0.65981649  1.0
  Sb  Sb75  1  0.56059802  0.94945418  0.08577894  1.0
  Sb  Sb76  1  0.57929334  0.82510840  0.69497693  1.0
  Sb  Sb77  1  0.60657147  0.91219725  0.40408327  1.0
  Sb  Sb78  1  0.64145631  0.37413366  0.12903209  1.0
  Sb  Sb79  1  0.64234602  0.66871096  0.52146154  1.0
  Sb  Sb80  1  0.64794458  0.81634341  0.21749530  1.0
  Sb  Sb81  1  0.65828772  0.56072773  0.03716242  1.0
  Sb  Sb82  1  0.70225498  0.09685304  0.20614024  1.0
  Sb  Sb83  1  0.70754143  0.15536793  0.82760690  1.0
  Sb  Sb84  1  0.71878122  0.98628674  0.92822907  1.0
  Sb  Sb85  1  0.75072270  0.62792220  0.75868248  1.0
  Sb  Sb86  1  0.75363316  0.07717813  0.64408452  1.0
  Sb  Sb87  1  0.76152744  0.28594712  0.61277671  1.0
  Sb  Sb88  1  0.78215291  0.26705797  0.30784013  1.0
  Sb  Sb89  1  0.79990002  0.40040517  0.97979442  1.0
  Sb  Sb90  1  0.82283513  0.93125674  0.28855452  1.0
  Sb  Sb91  1  0.88662712  0.70338887  0.97448831  1.0
  Sb  Sb92  1  0.88895898  0.48272215  0.39425736  1.0
  Sb  Sb93  1  0.89592887  0.89386739  0.85224965  1.0
  Sb  Sb94  1  0.92162551  0.68173454  0.38334302  1.0
  Sb  Sb95  1  0.94624403  0.32032663  0.71946133  1.0
  Sb  Sb96  1  0.95164581  0.20267792  0.01203266  1.0
  Sb  Sb97  1  0.97712073  0.02476291  0.73780834  1.0
  Sb  Sb98  1  0.99020409  0.96123549  0.15740484  1.0
  Sb  Sb99  1  0.99264185  0.52429531  0.01590355  1.0
