# generated using pymatgen
data_GaSb
_symmetry_space_group_name_H-M   Immm
_cell_length_a   3.11180200
_cell_length_b   4.23647602
_cell_length_c   4.23647602
_cell_angle_alpha   78.31018585
_cell_angle_beta   68.45308034
_cell_angle_gamma   68.45308034
_symmetry_Int_Tables_number   71
_chemical_formula_structural   GaSb
_chemical_formula_sum   'Ga1 Sb1'
_cell_volume   48.16833588
_cell_formula_units_Z   1
loop_
 _symmetry_equiv_pos_site_id
 _symmetry_equiv_pos_as_xyz
  1  'x, y, z'
  2  '-x, -y, -z'
  3  '-x-y-z, z, y'
  4  'x+y+z, -z, -y'
  5  'x+y+z, -y, -z'
  6  '-x-y-z, y, z'
  7  '-x, -z, -y'
  8  'x, z, y'
loop_
 _atom_site_type_symbol
 _atom_site_label
 _atom_site_symmetry_multiplicity
 _atom_site_fract_x
 _atom_site_fract_y
 _atom_site_fract_z
 _atom_site_occupancy
  Ga  Ga0  1  0.00000000  0.00000000  0.00000000  1.0
  Sb  Sb1  1  0.50000000  0.50000000  0.50000000  1.0
