# generated using pymatgen
data_GaSb
_symmetry_space_group_name_H-M   P1
_cell_length_a   13.45730578
_cell_length_b   14.31716100
_cell_length_c   14.24827397
_cell_angle_alpha   90.57019183
_cell_angle_beta   90.30696303
_cell_angle_gamma   91.16363975
_symmetry_Int_Tables_number   1
_chemical_formula_structural   GaSb
_chemical_formula_sum   'Ga50 Sb50'
_cell_volume   2744.47634968
_cell_formula_units_Z   50
loop_
 _symmetry_equiv_pos_site_id
 _symmetry_equiv_pos_as_xyz
  1  'x, y, z'
loop_
 _atom_site_type_symbol
 _atom_site_label
 _atom_site_symmetry_multiplicity
 _atom_site_fract_x
 _atom_site_fract_y
 _atom_site_fract_z
 _atom_site_occupancy
  Ga  Ga0  1  0.01271958  0.89912402  0.12608060  1.0
  Ga  Ga1  1  0.02698217  0.11148686  0.23265885  1.0
  Ga  Ga2  1  0.05459553  0.72603553  0.16236725  1.0
  Ga  Ga3  1  0.07550480  0.87238828  0.79125960  1.0
  Ga  Ga4  1  0.09050537  0.97353825  0.49912167  1.0
  Ga  Ga5  1  0.11514377  0.15489397  0.07379929  1.0
  Ga  Ga6  1  0.12962152  0.77020832  0.62524179  1.0
  Ga  Ga7  1  0.13571916  0.29950781  0.88107681  1.0
  Ga  Ga8  1  0.14173540  0.28281571  0.56245931  1.0
  Ga  Ga9  1  0.15976909  0.45963419  0.50564395  1.0
  Ga  Ga10  1  0.20320695  0.94259800  0.12071545  1.0
  Ga  Ga11  1  0.20789766  0.95179798  0.65808814  1.0
  Ga  Ga12  1  0.23212801  0.29151693  0.28066997  1.0
  Ga  Ga13  1  0.24283648  0.89876547  0.30628644  1.0
  Ga  Ga14  1  0.24865833  0.12578356  0.57229613  1.0
  Ga  Ga15  1  0.24981874  0.81872059  0.85169361  1.0
  Ga  Ga16  1  0.27311472  0.26745163  0.73277742  1.0
  Ga  Ga17  1  0.29057354  0.23477138  0.97657241  1.0
  Ga  Ga18  1  0.31388969  0.36210452  0.42854895  1.0
  Ga  Ga19  1  0.32982763  0.44783307  0.72677041  1.0
  Ga  Ga20  1  0.34094735  0.69275303  0.55859107  1.0
  Ga  Ga21  1  0.37980768  0.93455348  0.92688557  1.0
  Ga  Ga22  1  0.40488916  0.96410257  0.10397063  1.0
  Ga  Ga23  1  0.40535489  0.02090185  0.70777350  1.0
  Ga  Ga24  1  0.42308813  0.51497762  0.56663115  1.0
  Ga  Ga25  1  0.44987376  0.05887272  0.31366196  1.0
  Ga  Ga26  1  0.51100261  0.58106492  0.97830234  1.0
  Ga  Ga27  1  0.52029440  0.10755361  0.05798526  1.0
  Ga  Ga28  1  0.52594913  0.82071683  0.45798807  1.0
  Ga  Ga29  1  0.55444586  0.63732002  0.48951223  1.0
  Ga  Ga30  1  0.55942395  0.28511295  0.01241625  1.0
  Ga  Ga31  1  0.58437837  0.15841139  0.23803933  1.0
  Ga  Ga32  1  0.62494357  0.85997457  0.93678313  1.0
  Ga  Ga33  1  0.64321352  0.82372804  0.11166283  1.0
  Ga  Ga34  1  0.65828804  0.89175116  0.30130118  1.0
  Ga  Ga35  1  0.65840471  0.18036656  0.77247918  1.0
  Ga  Ga36  1  0.68433030  0.35201266  0.85307335  1.0
  Ga  Ga37  1  0.68611321  0.01378955  0.13497146  1.0
  Ga  Ga38  1  0.69628989  0.47129890  0.44223800  1.0
  Ga  Ga39  1  0.71555301  0.14360949  0.97598121  1.0
  Ga  Ga40  1  0.73892144  0.04083348  0.67562795  1.0
  Ga  Ga41  1  0.75868823  0.32946006  0.03804377  1.0
  Ga  Ga42  1  0.76410786  0.51381206  0.01910424  1.0
  Ga  Ga43  1  0.79644456  0.35845379  0.21573056  1.0
  Ga  Ga44  1  0.82438704  0.05096933  0.42259930  1.0
  Ga  Ga45  1  0.85378877  0.30889328  0.53910539  1.0
  Ga  Ga46  1  0.86697594  0.52993164  0.61866878  1.0
  Ga  Ga47  1  0.89058586  0.10567207  0.06522184  1.0
  Ga  Ga48  1  0.93251094  0.58761265  0.10031854  1.0
  Ga  Ga49  1  0.95673087  0.69198243  0.59282922  1.0
  Sb  Sb50  1  0.00807816  0.29918131  0.27929156  1.0
  Sb  Sb51  1  0.02540084  0.50735441  0.93536912  1.0
  Sb  Sb52  1  0.03275496  0.71470335  0.95021662  1.0
  Sb  Sb53  1  0.07531786  0.39115117  0.71656727  1.0
  Sb  Sb54  1  0.11772617  0.36294076  0.11461054  1.0
  Sb  Sb55  1  0.11832478  0.12879933  0.75590531  1.0
  Sb  Sb56  1  0.14786851  0.55787662  0.20537865  1.0
  Sb  Sb57  1  0.17058905  0.75674485  0.42766670  1.0
  Sb  Sb58  1  0.18661145  0.08326188  0.35347665  1.0
  Sb  Sb59  1  0.18824315  0.57226050  0.66128675  1.0
  Sb  Sb60  1  0.20139295  0.04442050  0.92816124  1.0
  Sb  Sb61  1  0.23275852  0.75961565  0.03865720  1.0
  Sb  Sb62  1  0.26260618  0.57714390  0.38104557  1.0
  Sb  Sb63  1  0.31132569  0.13418043  0.17861877  1.0
  Sb  Sb64  1  0.33655797  0.57061315  0.09817874  1.0
  Sb  Sb65  1  0.34032200  0.90634562  0.49933824  1.0
  Sb  Sb66  1  0.35889863  0.36173408  0.12404232  1.0
  Sb  Sb67  1  0.39486490  0.81098108  0.71333082  1.0
  Sb  Sb68  1  0.41091868  0.30601574  0.58577630  1.0
  Sb  Sb69  1  0.44367012  0.86954813  0.26426629  1.0
  Sb  Sb70  1  0.44752837  0.23507142  0.84683055  1.0
  Sb  Sb71  1  0.45076634  0.62852943  0.26685612  1.0
  Sb  Sb72  1  0.45852804  0.08768623  0.50977340  1.0
  Sb  Sb73  1  0.49628131  0.43823608  0.84652621  1.0
  Sb  Sb74  1  0.49692459  0.45946008  0.36900573  1.0
  Sb  Sb75  1  0.53518283  0.71802061  0.83823257  1.0
  Sb  Sb76  1  0.55253406  0.02985296  0.87284375  1.0
  Sb  Sb77  1  0.56921845  0.34659000  0.20199898  1.0
  Sb  Sb78  1  0.62829541  0.62736334  0.13135785  1.0
  Sb  Sb79  1  0.64937975  0.97881426  0.50328615  1.0
  Sb  Sb80  1  0.65590054  0.52348490  0.63033819  1.0
  Sb  Sb81  1  0.65987068  0.28881172  0.49538651  1.0
  Sb  Sb82  1  0.67021391  0.72126758  0.67848609  1.0
  Sb  Sb83  1  0.70157134  0.70577275  0.36444240  1.0
  Sb  Sb84  1  0.75132874  0.21016956  0.33240123  1.0
  Sb  Sb85  1  0.78074913  0.91129964  0.82458306  1.0
  Sb  Sb86  1  0.79315680  0.70881079  0.99007885  1.0
  Sb  Sb87  1  0.82337685  0.80981840  0.50129630  1.0
  Sb  Sb88  1  0.83130628  0.52906934  0.30695467  1.0
  Sb  Sb89  1  0.84075928  0.51624958  0.82313332  1.0
  Sb  Sb90  1  0.86319035  0.72869016  0.77707714  1.0
  Sb  Sb91  1  0.86527688  0.32962584  0.73206225  1.0
  Sb  Sb92  1  0.86879824  0.98258342  0.24222610  1.0
  Sb  Sb93  1  0.88221241  0.13963255  0.83627381  1.0
  Sb  Sb94  1  0.94542859  0.02072355  0.63893973  1.0
  Sb  Sb95  1  0.95300902  0.28001358  0.97744723  1.0
  Sb  Sb96  1  0.95784997  0.45403838  0.45556722  1.0
  Sb  Sb97  1  0.96288903  0.96007872  0.93611704  1.0
  Sb  Sb98  1  0.98030139  0.16276569  0.49567484  1.0
  Sb  Sb99  1  0.98358166  0.85254724  0.37309669  1.0
