# generated using pymatgen
data_GaSb
_symmetry_space_group_name_H-M   P1
_cell_length_a   12.99998730
_cell_length_b   14.47284957
_cell_length_c   15.11793480
_cell_angle_alpha   88.24567173
_cell_angle_beta   87.71086073
_cell_angle_gamma   89.40457328
_symmetry_Int_Tables_number   1
_chemical_formula_structural   GaSb
_chemical_formula_sum   'Ga50 Sb50'
_cell_volume   2840.67022218
_cell_formula_units_Z   50
loop_
 _symmetry_equiv_pos_site_id
 _symmetry_equiv_pos_as_xyz
  1  'x, y, z'
loop_
 _atom_site_type_symbol
 _atom_site_label
 _atom_site_symmetry_multiplicity
 _atom_site_fract_x
 _atom_site_fract_y
 _atom_site_fract_z
 _atom_site_occupancy
  Ga  Ga0  1  0.03006632  0.59020200  0.62689913  1.0
  Ga  Ga1  1  0.06342149  0.59687607  0.17948680  1.0
  Ga  Ga2  1  0.08532702  0.34523868  0.62635635  1.0
  Ga  Ga3  1  0.12947492  0.09203478  0.89672300  1.0
  Ga  Ga4  1  0.14703490  0.77448746  0.77075588  1.0
  Ga  Ga5  1  0.16872627  0.86307597  0.28093156  1.0
  Ga  Ga6  1  0.17083624  0.05048699  0.38623475  1.0
  Ga  Ga7  1  0.17205425  0.24210096  0.80111323  1.0
  Ga  Ga8  1  0.19937291  0.74991870  0.14171615  1.0
  Ga  Ga9  1  0.20848807  0.02035323  0.63035016  1.0
  Ga  Ga10  1  0.21490404  0.93905280  0.08928856  1.0
  Ga  Ga11  1  0.23949603  0.67174643  0.29697118  1.0
  Ga  Ga12  1  0.25997339  0.55796752  0.07798076  1.0
  Ga  Ga13  1  0.31230320  0.66166796  0.89619909  1.0
  Ga  Ga14  1  0.32047130  0.16441986  0.70676475  1.0
  Ga  Ga15  1  0.32220572  0.81837310  0.63040090  1.0
  Ga  Ga16  1  0.36060468  0.80247645  0.79522491  1.0
  Ga  Ga17  1  0.39109372  0.70372381  0.05271665  1.0
  Ga  Ga18  1  0.41491110  0.69969071  0.51681289  1.0
  Ga  Ga19  1  0.43874581  0.50445617  0.98874189  1.0
  Ga  Ga20  1  0.44280894  0.03935596  0.64157881  1.0
  Ga  Ga21  1  0.44449207  0.69236853  0.25559849  1.0
  Ga  Ga22  1  0.44936799  0.33408585  0.39811576  1.0
  Ga  Ga23  1  0.44971598  0.95940504  0.48888760  1.0
  Ga  Ga24  1  0.51197904  0.95938040  0.77945123  1.0
  Ga  Ga25  1  0.55232437  0.23474414  0.02224525  1.0
  Ga  Ga26  1  0.57748659  0.72247927  0.39356345  1.0
  Ga  Ga27  1  0.58255805  0.82916908  0.53385186  1.0
  Ga  Ga28  1  0.59181851  0.39957106  0.14527185  1.0
  Ga  Ga29  1  0.61687843  0.28797240  0.29437762  1.0
  Ga  Ga30  1  0.64595621  0.01610182  0.57074726  1.0
  Ga  Ga31  1  0.68240426  0.18540504  0.14473834  1.0
  Ga  Ga32  1  0.73767948  0.08216772  0.90950093  1.0
  Ga  Ga33  1  0.75453818  0.15012953  0.67558693  1.0
  Ga  Ga34  1  0.75767537  0.48006026  0.66570632  1.0
  Ga  Ga35  1  0.76112615  0.63586256  0.01251050  1.0
  Ga  Ga36  1  0.76915768  0.50071324  0.14935414  1.0
  Ga  Ga37  1  0.79467510  0.16439465  0.29117222  1.0
  Ga  Ga38  1  0.82929536  0.31976434  0.73148683  1.0
  Ga  Ga39  1  0.83943314  0.01335563  0.52089268  1.0
  Ga  Ga40  1  0.84628833  0.60414597  0.55747848  1.0
  Ga  Ga41  1  0.87232506  0.92741923  0.23269133  1.0
  Ga  Ga42  1  0.88046318  0.29412532  0.55820058  1.0
  Ga  Ga43  1  0.88255994  0.71247903  0.71123733  1.0
  Ga  Ga44  1  0.88518323  0.12510266  0.14037712  1.0
  Ga  Ga45  1  0.91041952  0.51676806  0.29923891  1.0
  Ga  Ga46  1  0.91346957  0.35905413  0.19300032  1.0
  Ga  Ga47  1  0.91563566  0.95360899  0.90846730  1.0
  Ga  Ga48  1  0.93248887  0.38344048  0.98272515  1.0
  Ga  Ga49  1  0.95433974  0.56587655  0.01813307  1.0
  Sb  Sb50  1  0.01540323  0.37659567  0.80262941  1.0
  Sb  Sb51  1  0.02440740  0.21579010  0.03428437  1.0
  Sb  Sb52  1  0.02654944  0.58110160  0.81876714  1.0
  Sb  Sb53  1  0.03851192  0.84233260  0.62459758  1.0
  Sb  Sb54  1  0.04417332  0.27391969  0.35786309  1.0
  Sb  Sb55  1  0.06876540  0.01994899  0.20541883  1.0
  Sb  Sb56  1  0.07579474  0.74049062  0.40859806  1.0
  Sb  Sb57  1  0.10679380  0.42581151  0.10117986  1.0
  Sb  Sb58  1  0.11941799  0.69528540  0.98416189  1.0
  Sb  Sb59  1  0.13484130  0.18828950  0.52396926  1.0
  Sb  Sb60  1  0.13674787  0.90464752  0.91845727  1.0
  Sb  Sb61  1  0.22409126  0.89123516  0.47893752  1.0
  Sb  Sb62  1  0.23195360  0.63048874  0.64244456  1.0
  Sb  Sb63  1  0.27399455  0.35808463  0.51838015  1.0
  Sb  Sb64  1  0.28501300  0.32237988  0.27908000  1.0
  Sb  Sb65  1  0.28558322  0.12854481  0.01434468  1.0
  Sb  Sb66  1  0.29284538  0.56306032  0.44524667  1.0
  Sb  Sb67  1  0.31277914  0.32999841  0.90606653  1.0
  Sb  Sb68  1  0.32310901  0.51429081  0.78336728  1.0
  Sb  Sb69  1  0.34306838  0.13237766  0.30360340  1.0
  Sb  Sb70  1  0.37324323  0.93351337  0.92440129  1.0
  Sb  Sb71  1  0.39027023  0.34138820  0.10167443  1.0
  Sb  Sb72  1  0.39219961  0.86636358  0.33157147  1.0
  Sb  Sb73  1  0.40222195  0.33805851  0.66787843  1.0
  Sb  Sb74  1  0.42395259  0.88710215  0.11997372  1.0
  Sb  Sb75  1  0.44168814  0.16412588  0.86810163  1.0
  Sb  Sb76  1  0.47202210  0.08697632  0.14581685  1.0
  Sb  Sb77  1  0.49362049  0.52645010  0.36025630  1.0
  Sb  Sb78  1  0.50559602  0.57126547  0.64506889  1.0
  Sb  Sb79  1  0.53208953  0.12662306  0.41208554  1.0
  Sb  Sb80  1  0.55539977  0.75717159  0.71522684  1.0
  Sb  Sb81  1  0.55797748  0.20590430  0.59196106  1.0
  Sb  Sb82  1  0.56479372  0.64312983  0.88116632  1.0
  Sb  Sb83  1  0.56560422  0.60377451  0.12485581  1.0
  Sb  Sb84  1  0.62728895  0.78722905  0.99952804  1.0
  Sb  Sb85  1  0.64769480  0.49472541  0.49777939  1.0
  Sb  Sb86  1  0.65580401  0.01576501  0.26511590  1.0
  Sb  Sb87  1  0.66461102  0.25007074  0.84578225  1.0
  Sb  Sb88  1  0.70103289  0.91154457  0.84131418  1.0
  Sb  Sb89  1  0.72182802  0.41519491  0.97003179  1.0
  Sb  Sb90  1  0.74992121  0.99607270  0.07598868  1.0
  Sb  Sb91  1  0.77792683  0.63655265  0.39065265  1.0
  Sb  Sb92  1  0.77822314  0.56959204  0.83227410  1.0
  Sb  Sb93  1  0.79595591  0.82844376  0.56910327  1.0
  Sb  Sb94  1  0.81127639  0.33083389  0.38535946  1.0
  Sb  Sb95  1  0.87336980  0.96393707  0.70417093  1.0
  Sb  Sb96  1  0.93407083  0.15900805  0.86717186  1.0
  Sb  Sb97  1  0.94588901  0.73666490  0.25791192  1.0
  Sb  Sb98  1  0.96009518  0.08151092  0.37892609  1.0
  Sb  Sb99  1  0.99832965  0.45876423  0.49352908  1.0
