# generated using pymatgen
data_V10Ga4.76190476
_symmetry_space_group_name_H-M   P6_3/mcm
_cell_length_a   4.90458700
_cell_length_b   7.35133897
_cell_length_c   7.35133847
_cell_angle_alpha   119.99999748
_cell_angle_beta   90.00000000
_cell_angle_gamma   90.00000000
_symmetry_Int_Tables_number   193
_chemical_formula_structural   V10Ga4.76190476
_chemical_formula_sum   'V10 Ga4.76190476'
_cell_volume   229.54400400
_cell_formula_units_Z   1
loop_
 _symmetry_equiv_pos_site_id
 _symmetry_equiv_pos_as_xyz
  1  'x, y, z'
  2  '-x, -y, -z'
  3  'x+1/2, z, -y+z'
  4  '-x+1/2, -z, y-z'
  5  'x, -y+z, -y'
  6  '-x, y-z, y'
  7  'x+1/2, -y, -z'
  8  '-x+1/2, y, z'
  9  'x, -z, y-z'
  10  '-x, z, -y+z'
  11  'x+1/2, y-z, y'
  12  '-x+1/2, -y+z, -y'
  13  '-x, -z, -y'
  14  'x, z, y'
  15  '-x+1/2, y-z, -z'
  16  'x+1/2, -y+z, z'
  17  '-x, y, y-z'
  18  'x, -y, -y+z'
  19  '-x+1/2, z, y'
  20  'x+1/2, -z, -y'
  21  '-x, -y+z, z'
  22  'x, y-z, -z'
  23  '-x+1/2, -y, -y+z'
  24  'x+1/2, y, y-z'
loop_
 _atom_site_type_symbol
 _atom_site_label
 _atom_site_symmetry_multiplicity
 _atom_site_fract_x
 _atom_site_fract_y
 _atom_site_fract_z
 _atom_site_occupancy
  V  V0  6  0.25000000  0.00000000  0.24309700  1.0
  V  V1  4  0.00000000  0.33333333  0.66666667  1.0
  Ga  Ga2  6  0.25000000  0.00000000  0.60579200  0.79365079365
