# generated using pymatgen
data_LaGa2Ni
_symmetry_space_group_name_H-M   Cmmm
_cell_length_a   4.22499100
_cell_length_b   4.29462600
_cell_length_c   9.05551195
_cell_angle_alpha   76.28292153
_cell_angle_beta   90.00000000
_cell_angle_gamma   90.00000000
_symmetry_Int_Tables_number   65
_chemical_formula_structural   LaGa2Ni
_chemical_formula_sum   'La2 Ga4 Ni2'
_cell_volume   159.62368421
_cell_formula_units_Z   2
loop_
 _symmetry_equiv_pos_site_id
 _symmetry_equiv_pos_as_xyz
  1  'x, y, z'
  2  '-x, -y, -z'
  3  'x, -y, -z'
  4  '-x, y, z'
  5  '-x, y+z, -z'
  6  'x, -y-z, z'
  7  '-x, -y-z, z'
  8  'x, y+z, -z'
loop_
 _atom_site_type_symbol
 _atom_site_label
 _atom_site_symmetry_multiplicity
 _atom_site_fract_x
 _atom_site_fract_y
 _atom_site_fract_z
 _atom_site_occupancy
  La  La0  2  0.00000000  0.14094500  0.71811000  1.0
  Ga  Ga1  2  0.50000000  0.29119900  0.41760200  1.0
  Ga  Ga2  1  0.00000000  0.50000000  0.00000000  1.0
  Ga  Ga3  1  0.50000000  0.00000000  0.00000000  1.0
  Ni  Ni4  2  0.50000000  0.42921400  0.14157200  1.0
