# generated using pymatgen
data_Ga2Pt
_symmetry_space_group_name_H-M   I4_1/acd
_cell_length_a   8.64187400
_cell_length_b   8.64187400
_cell_length_c   12.70596080
_cell_angle_alpha   109.88123918
_cell_angle_beta   109.88123918
_cell_angle_gamma   90.00000000
_symmetry_Int_Tables_number   142
_chemical_formula_structural   Ga2Pt
_chemical_formula_sum   'Ga32 Pt16'
_cell_volume   831.96016479
_cell_formula_units_Z   16
loop_
 _symmetry_equiv_pos_site_id
 _symmetry_equiv_pos_as_xyz
  1  'x, y, z'
  2  '-y+z+3/4, x+1/4, z+1/2'
  3  '-x+z, -y+z, z'
  4  'y+3/4, -x+z+1/4, z+1/2'
  5  'x-z+1/4, -y+3/4, -z+1/2'
  6  '-y+1/2, -x+1/2, -z'
  7  '-x+1/4, y-z+3/4, -z+1/2'
  8  'y-z+1/2, x-z+1/2, -z'
  9  '-x+3/4, -y+1/4, -z+1/2'
  10  'y-z, -x, -z'
  11  'x-z+3/4, y-z+1/4, -z+1/2'
  12  '-y, x-z, -z'
  13  '-x+z+1/2, y+1/2, z'
  14  'y+1/4, x+3/4, z+1/2'
  15  'x+1/2, -y+z+1/2, z'
  16  '-y+z+1/4, -x+z+3/4, z+1/2'
loop_
 _atom_site_type_symbol
 _atom_site_label
 _atom_site_symmetry_multiplicity
 _atom_site_fract_x
 _atom_site_fract_y
 _atom_site_fract_z
 _atom_site_occupancy
  Ga  Ga0  16  0.02123500  0.83450600  0.12560400  1.0
  Ga  Ga1  16  0.27072900  0.04131000  0.62582300  1.0
  Pt  Pt2  8  0.05162100  0.44837900  0.50000000  1.0
  Pt  Pt3  8  0.10994000  0.60994000  0.21988000  1.0
