# generated using pymatgen
data_Ga41Mo8
_symmetry_space_group_name_H-M   R-3
_cell_length_a   9.60437027
_cell_length_b   9.60437027
_cell_length_c   9.60437072
_cell_angle_alpha   94.87584563
_cell_angle_beta   94.87584563
_cell_angle_gamma   94.87584080
_symmetry_Int_Tables_number   148
_chemical_formula_structural   Ga41Mo8
_chemical_formula_sum   'Ga41 Mo8'
_cell_volume   875.74138899
_cell_formula_units_Z   1
loop_
 _symmetry_equiv_pos_site_id
 _symmetry_equiv_pos_as_xyz
  1  'x, y, z'
  2  '-x, -y, -z'
  3  'z, x, y'
  4  '-z, -x, -y'
  5  'y, z, x'
  6  '-y, -z, -x'
loop_
 _atom_site_type_symbol
 _atom_site_label
 _atom_site_symmetry_multiplicity
 _atom_site_fract_x
 _atom_site_fract_y
 _atom_site_fract_z
 _atom_site_occupancy
  Ga  Ga0  6  0.03133200  0.40109000  0.21345300  1.0
  Ga  Ga1  6  0.05706800  0.87381300  0.73905600  1.0
  Ga  Ga2  6  0.07454100  0.77806400  0.44924700  1.0
  Ga  Ga3  6  0.12441700  0.67931100  0.17614500  1.0
  Ga  Ga4  6  0.22145000  0.32477400  0.46125700  1.0
  Ga  Ga5  6  0.26586900  0.61114100  0.63417700  1.0
  Ga  Ga6  3  0.00000000  0.50000000  0.50000000  1.0
  Ga  Ga7  1  0.00000000  0.00000000  0.00000000  1.0
  Ga  Ga8  1  0.50000000  0.50000000  0.50000000  1.0
  Mo  Mo9  6  0.11255100  0.38754500  0.70750000  1.0
  Mo  Mo10  2  0.19831500  0.19831500  0.19831500  1.0
