# generated using pymatgen
data_Mn3.7Ga10
_symmetry_space_group_name_H-M   P4/mbm
_cell_length_a   2.70190800
_cell_length_b   8.84707400
_cell_length_c   8.84707400
_cell_angle_alpha   90.00000000
_cell_angle_beta   90.00000000
_cell_angle_gamma   90.00000000
_symmetry_Int_Tables_number   127
_chemical_formula_structural   Mn3.7Ga10
_chemical_formula_sum   'Mn3.7 Ga10'
_cell_volume   211.48028011
_cell_formula_units_Z   1
loop_
 _symmetry_equiv_pos_site_id
 _symmetry_equiv_pos_as_xyz
  1  'x, y, z'
  2  '-x, -y, -z'
  3  'x, -z, y'
  4  '-x, z, -y'
  5  'x, -y, -z'
  6  '-x, y, z'
  7  'x, z, -y'
  8  '-x, -z, y'
  9  '-x, y+1/2, -z+1/2'
  10  'x, -y+1/2, z+1/2'
  11  '-x, -z+1/2, -y+1/2'
  12  'x, z+1/2, y+1/2'
  13  '-x, -y+1/2, z+1/2'
  14  'x, y+1/2, -z+1/2'
  15  '-x, z+1/2, y+1/2'
  16  'x, -z+1/2, -y+1/2'
loop_
 _atom_site_type_symbol
 _atom_site_label
 _atom_site_symmetry_multiplicity
 _atom_site_fract_x
 _atom_site_fract_y
 _atom_site_fract_z
 _atom_site_occupancy
  Mn  Mn0  4  0.50000000  0.17865100  0.32134900  0.925
  Ga  Ga1  8  0.00000000  0.06478500  0.79313000  1.0
  Ga  Ga2  2  0.00000000  0.00000000  0.50000000  1.0
