# generated using pymatgen
data_SmGa6
_symmetry_space_group_name_H-M   P4/mmm
_cell_length_a   13.10684000
_cell_length_b   17.85154700
_cell_length_c   17.85154700
_cell_angle_alpha   90.00000000
_cell_angle_beta   90.00000000
_cell_angle_gamma   90.00000000
_symmetry_Int_Tables_number   123
_chemical_formula_structural   SmGa6
_chemical_formula_sum   'Sm2 Ga12'
_cell_volume   4176.85802252
_cell_formula_units_Z   2
loop_
 _symmetry_equiv_pos_site_id
 _symmetry_equiv_pos_as_xyz
  1  'x, y, z'
  2  '-x, -y, -z'
  3  'x, -z, y'
  4  '-x, z, -y'
  5  'x, -y, -z'
  6  '-x, y, z'
  7  'x, z, -y'
  8  '-x, -z, y'
  9  '-x, y, -z'
  10  'x, -y, z'
  11  '-x, -z, -y'
  12  'x, z, y'
  13  '-x, -y, z'
  14  'x, y, -z'
  15  '-x, z, y'
  16  'x, -z, -y'
loop_
 _atom_site_type_symbol
 _atom_site_label
 _atom_site_symmetry_multiplicity
 _atom_site_fract_x
 _atom_site_fract_y
 _atom_site_fract_z
 _atom_site_occupancy
  Sm  Sm0  2  0.00000000  0.00000000  0.50000000  1.0
  Ga  Ga1  8  0.40277400  0.00000000  0.10784400  1.0
  Ga  Ga2  4  0.21880000  0.00000000  0.50000000  1.0
