# generated using pymatgen
data_Yb1.66666667Ga10
_symmetry_space_group_name_H-M   I4/mmm
_cell_length_a   4.32075400
_cell_length_b   4.32075400
_cell_length_c   13.40896066
_cell_angle_alpha   99.27158740
_cell_angle_beta   99.27158739
_cell_angle_gamma   90.00000002
_symmetry_Int_Tables_number   139
_chemical_formula_structural   Yb1.66666667Ga10
_chemical_formula_sum   'Yb1.66666667 Ga10'
_cell_volume   243.74609776
_cell_formula_units_Z   1
loop_
 _symmetry_equiv_pos_site_id
 _symmetry_equiv_pos_as_xyz
  1  'x, y, z'
  2  '-x, -y, -z'
  3  '-y+z, x, z'
  4  'y-z, -x, -z'
  5  '-x+z, -y+z, z'
  6  'x-z, y-z, -z'
  7  'y, -x+z, z'
  8  '-y, x-z, -z'
  9  'x-z, -y, -z'
  10  '-x+z, y, z'
  11  '-y, -x, -z'
  12  'y, x, z'
  13  '-x, y-z, -z'
  14  'x, -y+z, z'
  15  'y-z, x-z, -z'
  16  '-y+z, -x+z, z'
loop_
 _atom_site_type_symbol
 _atom_site_label
 _atom_site_symmetry_multiplicity
 _atom_site_fract_x
 _atom_site_fract_y
 _atom_site_fract_z
 _atom_site_occupancy
  Yb  Yb0  2  0.14995300  0.14995300  0.29990600  0.83333333335
  Ga  Ga1  4  0.04756700  0.54756700  0.09513400  1.0
  Ga  Ga2  2  0.25000000  0.75000000  0.50000000  1.0
  Ga  Ga3  2  0.30534700  0.30534700  0.61069400  1.0
  Ga  Ga4  2  0.39912800  0.39912800  0.79825600  1.0
