# generated using pymatgen
data_Ga9Rh2
_symmetry_space_group_name_H-M   Pc
_cell_length_a   6.46152700
_cell_length_b   6.50160900
_cell_length_c   8.91719144
_cell_angle_alpha   93.07047060
_cell_angle_beta   90.00000000
_cell_angle_gamma   90.00000000
_symmetry_Int_Tables_number   7
_chemical_formula_structural   Ga9Rh2
_chemical_formula_sum   'Ga18 Rh4'
_cell_volume   374.07629204
_cell_formula_units_Z   2
loop_
 _symmetry_equiv_pos_site_id
 _symmetry_equiv_pos_as_xyz
  1  'x, y, z'
  2  '-x, y, z+1/2'
loop_
 _atom_site_type_symbol
 _atom_site_label
 _atom_site_symmetry_multiplicity
 _atom_site_fract_x
 _atom_site_fract_y
 _atom_site_fract_z
 _atom_site_occupancy
  Ga  Ga0  2  0.02785100  0.89379100  0.78348700  1.0
  Ga  Ga1  2  0.05447600  0.61335800  0.50197500  1.0
  Ga  Ga2  2  0.15672400  0.21806400  0.03916800  1.0
  Ga  Ga3  2  0.23869600  0.03298900  0.53085300  1.0
  Ga  Ga4  2  0.23926900  0.39911800  0.76766100  1.0
  Ga  Ga5  2  0.25992700  0.59984600  0.22602700  1.0
  Ga  Ga6  2  0.36547700  0.80136000  0.95641300  1.0
  Ga  Ga7  2  0.44734800  0.40188600  0.49181300  1.0
  Ga  Ga8  2  0.45227800  0.09070800  0.23280100  1.0
  Rh  Rh9  2  0.12080500  0.25959200  0.33159900  1.0
  Rh  Rh10  2  0.37673800  0.73919900  0.66871300  1.0
