# generated using pymatgen
data_Ga9Rh2
_symmetry_space_group_name_H-M   P2_1/c
_cell_length_a   6.39641200
_cell_length_b   6.47251400
_cell_length_c   8.99635279
_cell_angle_alpha   93.37679581
_cell_angle_beta   90.00000000
_cell_angle_gamma   90.00000000
_symmetry_Int_Tables_number   14
_chemical_formula_structural   Ga9Rh2
_chemical_formula_sum   'Ga18 Rh4'
_cell_volume   371.81012562
_cell_formula_units_Z   2
loop_
 _symmetry_equiv_pos_site_id
 _symmetry_equiv_pos_as_xyz
  1  'x, y, z'
  2  '-x, -y, -z'
  3  'x+1/2, -y, -z+1/2'
  4  '-x+1/2, y, z+1/2'
loop_
 _atom_site_type_symbol
 _atom_site_label
 _atom_site_symmetry_multiplicity
 _atom_site_fract_x
 _atom_site_fract_y
 _atom_site_fract_z
 _atom_site_occupancy
  Ga  Ga0  4  0.01838100  0.59962400  0.73320100  1.0
  Ga  Ga1  4  0.10394900  0.78573000  0.45730300  1.0
  Ga  Ga2  4  0.20153700  0.38830900  0.99949300  1.0
  Ga  Ga3  4  0.21807900  0.09962300  0.72667300  1.0
  Ga  Ga4  2  0.00000000  0.00000000  0.00000000  1.0
  Rh  Rh5  4  0.12293400  0.73867400  0.16719300  1.0
