# generated using pymatgen
data_Ge0.937Te1
_symmetry_space_group_name_H-M   Cm
_cell_length_a   5.94973425
_cell_length_b   9.90723373
_cell_length_c   9.90723373
_cell_angle_alpha   84.97400612
_cell_angle_beta   77.45903181
_cell_angle_gamma   77.45903181
_symmetry_Int_Tables_number   8
_chemical_formula_structural   Ge0.937Te1
_chemical_formula_sum   'Ge0.937 Te1'
_cell_volume   555.94987576
_cell_formula_units_Z   1
loop_
 _symmetry_equiv_pos_site_id
 _symmetry_equiv_pos_as_xyz
  1  'x, y, z'
  2  'x, z, y'
loop_
 _atom_site_type_symbol
 _atom_site_label
 _atom_site_symmetry_multiplicity
 _atom_site_fract_x
 _atom_site_fract_y
 _atom_site_fract_z
 _atom_site_occupancy
  Ge  Ge0  1  0.02784900  0.99368400  0.99368400  0.937
  Te  Te1  1  0.36715100  0.04831600  0.04831600  1.0
