# generated using pymatgen
data_La2Ni4GeP3
_symmetry_space_group_name_H-M   P4mm
_cell_length_a   4.02695300
_cell_length_b   4.02695300
_cell_length_c   9.82492700
_cell_angle_alpha   90.00000000
_cell_angle_beta   90.00000000
_cell_angle_gamma   90.00000000
_symmetry_Int_Tables_number   99
_chemical_formula_structural   La2Ni4GeP3
_chemical_formula_sum   'La2 Ni4 Ge1 P3'
_cell_volume   159.32445952
_cell_formula_units_Z   1
loop_
 _symmetry_equiv_pos_site_id
 _symmetry_equiv_pos_as_xyz
  1  'x, y, z'
  2  '-y, x, z'
  3  '-x, -y, z'
  4  'y, -x, z'
  5  '-x, y, z'
  6  'y, x, z'
  7  'x, -y, z'
  8  '-y, -x, z'
loop_
 _atom_site_type_symbol
 _atom_site_label
 _atom_site_symmetry_multiplicity
 _atom_site_fract_x
 _atom_site_fract_y
 _atom_site_fract_z
 _atom_site_occupancy
  La  La0  1  0.00000000  0.00000000  0.99145500  1.0
  La  La1  1  0.50000000  0.50000000  0.50345500  1.0
  Ni  Ni2  2  0.00000000  0.50000000  0.25974900  1.0
  Ni  Ni3  2  0.00000000  0.50000000  0.74597100  1.0
  Ge  Ge4  1  0.50000000  0.50000000  0.12798700  1.0
  P  P5  1  0.00000000  0.00000000  0.36897200  1.0
  P  P6  1  0.00000000  0.00000000  0.63137600  1.0
  P  P7  1  0.50000000  0.50000000  0.86531600  1.0
