# generated using pymatgen
data_Ge3.904Te4
_symmetry_space_group_name_H-M   Pnma
_cell_length_a   4.19597200
_cell_length_b   4.64073700
_cell_length_c   11.81023400
_cell_angle_alpha   90.00000000
_cell_angle_beta   90.00000000
_cell_angle_gamma   90.00000000
_symmetry_Int_Tables_number   62
_chemical_formula_structural   Ge3.904Te4
_chemical_formula_sum   'Ge3.904 Te4'
_cell_volume   229.97363020
_cell_formula_units_Z   1
loop_
 _symmetry_equiv_pos_site_id
 _symmetry_equiv_pos_as_xyz
  1  'x, y, z'
  2  '-x, -y, -z'
  3  '-x, y+1/2, -z+1/2'
  4  'x, -y+1/2, z+1/2'
  5  '-x+1/2, -y+1/2, z+1/2'
  6  'x+1/2, y+1/2, -z+1/2'
  7  'x+1/2, -y, -z'
  8  '-x+1/2, y, z'
loop_
 _atom_site_type_symbol
 _atom_site_label
 _atom_site_symmetry_multiplicity
 _atom_site_fract_x
 _atom_site_fract_y
 _atom_site_fract_z
 _atom_site_occupancy
  Ge  Ge0  4  0.25000000  0.10819700  0.12183700  0.976
  Te  Te1  4  0.25000000  0.00584700  0.35444600  1.0
