# generated using pymatgen
data_Ge0.95Te1
_symmetry_space_group_name_H-M   R3m
_cell_length_a   4.23066618
_cell_length_b   4.23066618
_cell_length_c   4.37516386
_cell_angle_alpha   61.08664147
_cell_angle_beta   61.08664147
_cell_angle_gamma   59.99999709
_symmetry_Int_Tables_number   160
_chemical_formula_structural   Ge0.95Te1
_chemical_formula_sum   'Ge0.95 Te1'
_cell_volume   56.26495827
_cell_formula_units_Z   1
loop_
 _symmetry_equiv_pos_site_id
 _symmetry_equiv_pos_as_xyz
  1  'x, y, z'
  2  '-x-y-z, x, z'
  3  'y, -x-y-z, z'
  4  'x, -x-y-z, z'
  5  '-x-y-z, y, z'
  6  'y, x, z'
loop_
 _atom_site_type_symbol
 _atom_site_label
 _atom_site_symmetry_multiplicity
 _atom_site_fract_x
 _atom_site_fract_y
 _atom_site_fract_z
 _atom_site_occupancy
  Ge  Ge0  1  0.99506000  0.99506000  0.01482000  0.95
  Te  Te1  1  0.52594000  0.52594000  0.42218000  1.0
