# generated using pymatgen
data_Ge
_symmetry_space_group_name_H-M   R-3
_cell_length_a   5.96591555
_cell_length_b   6.11993334
_cell_length_c   6.11993334
_cell_angle_alpha   70.02460739
_cell_angle_beta   71.03778107
_cell_angle_gamma   108.96221893
_symmetry_Int_Tables_number   148
_chemical_formula_structural   Ge
_chemical_formula_sum   Ge8
_cell_volume   173.07655469
_cell_formula_units_Z   8
loop_
 _symmetry_equiv_pos_site_id
 _symmetry_equiv_pos_as_xyz
  1  'x, y, z'
  2  '-x, -y, -z'
  3  'x+z, z, -y-z'
  4  '-x-z, -z, y+z'
  5  'x-y, -y-z, y'
  6  '-x+y, y+z, -y'
loop_
 _atom_site_type_symbol
 _atom_site_label
 _atom_site_symmetry_multiplicity
 _atom_site_fract_x
 _atom_site_fract_y
 _atom_site_fract_z
 _atom_site_occupancy
  Ge  Ge0  6  0.02693000  0.30516300  0.50312300  1.0
  Ge  Ge1  2  0.28551900  0.00000000  0.00000000  1.0
