# generated using pymatgen
data_Ge
_symmetry_space_group_name_H-M   Imma
_cell_length_a   2.87389400
_cell_length_b   3.91425576
_cell_length_c   3.91425576
_cell_angle_alpha   79.23258343
_cell_angle_beta   68.46274931
_cell_angle_gamma   68.46274931
_symmetry_Int_Tables_number   74
_chemical_formula_structural   Ge
_chemical_formula_sum   Ge2
_cell_volume   38.02899583
_cell_formula_units_Z   2
loop_
 _symmetry_equiv_pos_site_id
 _symmetry_equiv_pos_as_xyz
  1  'x, y, z'
  2  '-x, -y, -z'
  3  'x+y+z+1/2, -y+1/2, -z+1/2'
  4  '-x-y-z+1/2, y+1/2, z+1/2'
  5  '-x, -z, -y'
  6  'x, z, y'
  7  '-x-y-z+1/2, z+1/2, y+1/2'
  8  'x+y+z+1/2, -z+1/2, -y+1/2'
loop_
 _atom_site_type_symbol
 _atom_site_label
 _atom_site_symmetry_multiplicity
 _atom_site_fract_x
 _atom_site_fract_y
 _atom_site_fract_z
 _atom_site_occupancy
  Ge  Ge0  2  0.31405700  0.75000000  0.75000000  1.0
