# generated using pymatgen
data_Ge
_symmetry_space_group_name_H-M   Cmce
_cell_length_a   5.35711117
_cell_length_b   5.35711117
_cell_length_c   5.88204500
_cell_angle_alpha   90.00000000
_cell_angle_beta   90.00000000
_cell_angle_gamma   111.69212739
_symmetry_Int_Tables_number   64
_chemical_formula_structural   Ge
_chemical_formula_sum   Ge8
_cell_volume   156.85237086
_cell_formula_units_Z   8
loop_
 _symmetry_equiv_pos_site_id
 _symmetry_equiv_pos_as_xyz
  1  'x, y, z'
  2  '-x, -y, -z'
  3  '-x+1/2, -y+1/2, z+1/2'
  4  'x+1/2, y+1/2, -z+1/2'
  5  '-y, -x, -z'
  6  'y, x, z'
  7  'y+1/2, x+1/2, -z+1/2'
  8  '-y+1/2, -x+1/2, z+1/2'
loop_
 _atom_site_type_symbol
 _atom_site_label
 _atom_site_symmetry_multiplicity
 _atom_site_fract_x
 _atom_site_fract_y
 _atom_site_fract_z
 _atom_site_occupancy
  Ge  Ge0  4  0.16883200  0.16883200  0.67090400  1.0
  Ge  Ge1  4  0.21799300  0.78200700  0.00000000  1.0
