# generated using pymatgen
data_Ge
_symmetry_space_group_name_H-M   P6_3mc
_cell_length_a   4.05040400
_cell_length_b   4.05040507
_cell_length_c   10.99335900
_cell_angle_alpha   90.00000000
_cell_angle_beta   90.00000000
_cell_angle_gamma   119.99999123
_symmetry_Int_Tables_number   186
_chemical_formula_structural   Ge
_chemical_formula_sum   Ge4
_cell_volume   156.19167485
_cell_formula_units_Z   4
loop_
 _symmetry_equiv_pos_site_id
 _symmetry_equiv_pos_as_xyz
  1  'x, y, z'
  2  'x-y, x, z+1/2'
  3  '-y, x-y, z'
  4  '-x, -y, z+1/2'
  5  '-x+y, -x, z'
  6  'y, -x+y, z+1/2'
  7  'y, x, z+1/2'
  8  'x, x-y, z'
  9  'x-y, -y, z+1/2'
  10  '-y, -x, z'
  11  '-x, -x+y, z+1/2'
  12  '-x+y, y, z'
loop_
 _atom_site_type_symbol
 _atom_site_label
 _atom_site_symmetry_multiplicity
 _atom_site_fract_x
 _atom_site_fract_y
 _atom_site_fract_z
 _atom_site_occupancy
  Ge  Ge0  2  0.00000000  0.00000000  0.02254800  1.0
  Ge  Ge1  2  0.33333333  0.66666667  0.58515200  1.0
