# generated using pymatgen
data_Ge
_symmetry_space_group_name_H-M   Fmmm
_cell_length_a   3.90474197
_cell_length_b   3.90474197
_cell_length_c   5.75235107
_cell_angle_alpha   107.94246643
_cell_angle_beta   107.94246633
_cell_angle_gamma   95.29851169
_symmetry_Int_Tables_number   69
_chemical_formula_structural   Ge
_chemical_formula_sum   Ge4
_cell_volume   77.66531426
_cell_formula_units_Z   4
loop_
 _symmetry_equiv_pos_site_id
 _symmetry_equiv_pos_as_xyz
  1  'x, y, z'
  2  '-x, -y, -z'
  3  '-x+z, -y+z, z'
  4  'x-z, y-z, -z'
  5  'y-z, x-z, -z'
  6  '-y+z, -x+z, z'
  7  '-y, -x, -z'
  8  'y, x, z'
loop_
 _atom_site_type_symbol
 _atom_site_label
 _atom_site_symmetry_multiplicity
 _atom_site_fract_x
 _atom_site_fract_y
 _atom_site_fract_z
 _atom_site_occupancy
  Ge  Ge0  2  0.21813300  0.21813300  0.43626600  1.0
  Ge  Ge1  2  0.27351000  0.72649000  0.00000000  1.0
