# generated using pymatgen
data_Y2Ge3.24
_symmetry_space_group_name_H-M   I4_1/amd
_cell_length_a   3.99503200
_cell_length_b   3.99503200
_cell_length_c   8.79228723
_cell_angle_alpha   103.13166655
_cell_angle_beta   103.13166656
_cell_angle_gamma   89.99999998
_symmetry_Int_Tables_number   141
_chemical_formula_structural   Y2Ge3.24
_chemical_formula_sum   'Y2 Ge3.24'
_cell_volume   132.88711646
_cell_formula_units_Z   1
loop_
 _symmetry_equiv_pos_site_id
 _symmetry_equiv_pos_as_xyz
  1  'x, y, z'
  2  '-y+z+3/4, x+1/4, z+1/2'
  3  '-x+z, -y+z, z'
  4  'y+3/4, -x+z+1/4, z+1/2'
  5  'x-z+3/4, -y+1/4, -z+1/2'
  6  '-y, -x, -z'
  7  '-x+3/4, y-z+1/4, -z+1/2'
  8  'y-z, x-z, -z'
  9  '-x+3/4, -y+1/4, -z+1/2'
  10  'y-z, -x, -z'
  11  'x-z+3/4, y-z+1/4, -z+1/2'
  12  '-y, x-z, -z'
  13  '-x+z, y, z'
  14  'y+3/4, x+1/4, z+1/2'
  15  'x, -y+z, z'
  16  '-y+z+3/4, -x+z+1/4, z+1/2'
loop_
 _atom_site_type_symbol
 _atom_site_label
 _atom_site_symmetry_multiplicity
 _atom_site_fract_x
 _atom_site_fract_y
 _atom_site_fract_z
 _atom_site_occupancy
  Y  Y0  2  0.25000000  0.75000000  0.50000000  1.0
  Ge  Ge1  4  0.07798600  0.07798600  0.15597200  0.81
