# generated using pymatgen
data_Y4Ge8Ir3.2
_symmetry_space_group_name_H-M   Immm
_cell_length_a   4.29488600
_cell_length_b   8.91490000
_cell_length_c   9.47194210
_cell_angle_alpha   118.07293586
_cell_angle_beta   103.10381919
_cell_angle_gamma   90.00000001
_symmetry_Int_Tables_number   71
_chemical_formula_structural   Y4Ge8Ir3.2
_chemical_formula_sum   'Y4 Ge8 Ir3.2'
_cell_volume   309.25459164
_cell_formula_units_Z   1
loop_
 _symmetry_equiv_pos_site_id
 _symmetry_equiv_pos_as_xyz
  1  'x, y, z'
  2  '-x, -y, -z'
  3  '-x+z, -y+z, z'
  4  'x-z, y-z, -z'
  5  'x-z, -y, -z'
  6  '-x+z, y, z'
  7  '-x, y-z, -z'
  8  'x, -y+z, z'
loop_
 _atom_site_type_symbol
 _atom_site_label
 _atom_site_symmetry_multiplicity
 _atom_site_fract_x
 _atom_site_fract_y
 _atom_site_fract_z
 _atom_site_occupancy
  Y  Y0  2  0.00000000  0.26126200  0.00000000  1.0
  Y  Y1  2  0.20544200  0.70544200  0.41088400  1.0
  Ge  Ge2  4  0.20044000  0.04754900  0.40088000  1.0
  Ge  Ge3  2  0.42180500  0.92180500  0.84361000  1.0
  Ge  Ge4  2  0.42297700  0.42297700  0.84595400  1.0
  Ir  Ir5  4  0.35438300  0.60493700  0.70876700  0.8
