# generated using pymatgen
data_Y5(Ge5Rh2)2
_symmetry_space_group_name_H-M   P4/mbm
_cell_length_a   4.31792600
_cell_length_b   13.10458800
_cell_length_c   13.10458800
_cell_angle_alpha   90.00000000
_cell_angle_beta   90.00000000
_cell_angle_gamma   90.00000000
_symmetry_Int_Tables_number   127
_chemical_formula_structural   Y5(Ge5Rh2)2
_chemical_formula_sum   'Y10 Ge20 Rh8'
_cell_volume   741.51841064
_cell_formula_units_Z   2
loop_
 _symmetry_equiv_pos_site_id
 _symmetry_equiv_pos_as_xyz
  1  'x, y, z'
  2  '-x, -y, -z'
  3  'x, -z, y'
  4  '-x, z, -y'
  5  'x, -y, -z'
  6  '-x, y, z'
  7  'x, z, -y'
  8  '-x, -z, y'
  9  '-x, y+1/2, -z+1/2'
  10  'x, -y+1/2, z+1/2'
  11  '-x, -z+1/2, -y+1/2'
  12  'x, z+1/2, y+1/2'
  13  '-x, -y+1/2, z+1/2'
  14  'x, y+1/2, -z+1/2'
  15  '-x, z+1/2, y+1/2'
  16  'x, -z+1/2, -y+1/2'
loop_
 _atom_site_type_symbol
 _atom_site_label
 _atom_site_symmetry_multiplicity
 _atom_site_fract_x
 _atom_site_fract_y
 _atom_site_fract_z
 _atom_site_occupancy
  Y  Y0  4  0.50000000  0.11335200  0.61335200  1.0
  Y  Y1  4  0.50000000  0.17571900  0.32428100  1.0
  Y  Y2  2  0.00000000  0.00000000  0.00000000  1.0
  Ge  Ge3  8  0.00000000  0.16113500  0.80009300  1.0
  Ge  Ge4  8  0.50000000  0.00302900  0.15940200  1.0
  Ge  Ge5  4  0.00000000  0.06629100  0.43370900  1.0
  Rh  Rh6  8  0.00000000  0.02199900  0.24567200  1.0
