# generated using pymatgen
data_LaNi2GeP
_symmetry_space_group_name_H-M   I4mm
_cell_length_a   4.09748400
_cell_length_b   4.09748400
_cell_length_c   5.73006553
_cell_angle_alpha   110.94934950
_cell_angle_beta   110.94934950
_cell_angle_gamma   90.00000000
_symmetry_Int_Tables_number   107
_chemical_formula_structural   LaNi2GeP
_chemical_formula_sum   'La1 Ni2 Ge1 P1'
_cell_volume   82.99958549
_cell_formula_units_Z   1
loop_
 _symmetry_equiv_pos_site_id
 _symmetry_equiv_pos_as_xyz
  1  'x, y, z'
  2  '-y+z, x, z'
  3  '-x+z, -y+z, z'
  4  'y, -x+z, z'
  5  '-x+z, y, z'
  6  'y, x, z'
  7  'x, -y+z, z'
  8  '-y+z, -x+z, z'
loop_
 _atom_site_type_symbol
 _atom_site_label
 _atom_site_symmetry_multiplicity
 _atom_site_fract_x
 _atom_site_fract_y
 _atom_site_fract_z
 _atom_site_occupancy
  La  La0  1  0.00307900  0.00307900  0.00615800  1.0
  Ni  Ni1  2  0.24460300  0.74460300  0.48920600  1.0
  Ge  Ge2  1  0.37161400  0.37161400  0.74322800  1.0
  P  P3  1  0.63610200  0.63610200  0.27220400  1.0
