# generated using pymatgen
data_Nb3Ge
_symmetry_space_group_name_H-M   Amm2
_cell_length_a   5.40212100
_cell_length_b   7.77642641
_cell_length_c   7.77642641
_cell_angle_alpha   118.39023249
_cell_angle_beta   90.00000000
_cell_angle_gamma   90.00000000
_symmetry_Int_Tables_number   38
_chemical_formula_structural   Nb3Ge
_chemical_formula_sum   'Nb12 Ge4'
_cell_volume   287.39133266
_cell_formula_units_Z   4
loop_
 _symmetry_equiv_pos_site_id
 _symmetry_equiv_pos_as_xyz
  1  'x, y, z'
  2  '-x, z, y'
  3  '-x, y, z'
  4  'x, z, y'
loop_
 _atom_site_type_symbol
 _atom_site_label
 _atom_site_symmetry_multiplicity
 _atom_site_fract_x
 _atom_site_fract_y
 _atom_site_fract_z
 _atom_site_occupancy
  Nb  Nb0  4  0.24566900  0.33352900  0.65849800  1.0
  Nb  Nb1  2  0.00000000  0.00544000  0.76241800  1.0
  Nb  Nb2  2  0.50000000  0.00041400  0.24425700  1.0
  Nb  Nb3  2  0.50000000  0.60821800  0.99907100  1.0
  Nb  Nb4  1  0.00000000  0.24998100  0.24998100  1.0
  Nb  Nb5  1  0.50000000  0.74682700  0.74682700  1.0
  Ge  Ge6  2  0.00000000  0.40039700  0.99695500  1.0
  Ge  Ge7  1  0.00000000  0.61532700  0.61532700  1.0
  Ge  Ge8  1  0.50000000  0.38665200  0.38665200  1.0
