# generated using pymatgen
data_YGePd2
_symmetry_space_group_name_H-M   Pnma
_cell_length_a   5.61253600
_cell_length_b   7.13598500
_cell_length_c   7.45014000
_cell_angle_alpha   90.00000000
_cell_angle_beta   90.00000000
_cell_angle_gamma   90.00000000
_symmetry_Int_Tables_number   62
_chemical_formula_structural   YGePd2
_chemical_formula_sum   'Y4 Ge4 Pd8'
_cell_volume   298.38535381
_cell_formula_units_Z   4
loop_
 _symmetry_equiv_pos_site_id
 _symmetry_equiv_pos_as_xyz
  1  'x, y, z'
  2  '-x, -y, -z'
  3  'x+1/2, -y, -z+1/2'
  4  '-x+1/2, y, z+1/2'
  5  '-x+1/2, -y+1/2, z+1/2'
  6  'x+1/2, y+1/2, -z+1/2'
  7  '-x, y+1/2, -z'
  8  'x, -y+1/2, z'
loop_
 _atom_site_type_symbol
 _atom_site_label
 _atom_site_symmetry_multiplicity
 _atom_site_fract_x
 _atom_site_fract_y
 _atom_site_fract_z
 _atom_site_occupancy
  Y  Y0  4  0.14542000  0.75000000  0.52755800  1.0
  Ge  Ge1  4  0.14442900  0.25000000  0.12289600  1.0
  Pd  Pd2  8  0.09048200  0.05189300  0.82114000  1.0
