# generated using pymatgen
data_GeP
_symmetry_space_group_name_H-M   I4mm
_cell_length_a   3.56519600
_cell_length_b   3.82051627
_cell_length_c   3.56519600
_cell_angle_alpha   62.18711020
_cell_angle_beta   90.00000000
_cell_angle_gamma   117.81288980
_symmetry_Int_Tables_number   107
_chemical_formula_structural   GeP
_chemical_formula_sum   'Ge1 P1'
_cell_volume   36.48863827
_cell_formula_units_Z   1
loop_
 _symmetry_equiv_pos_site_id
 _symmetry_equiv_pos_as_xyz
  1  'x, y, z'
  2  '-z, y, x-y'
  3  '-x+y, y, -y-z'
  4  'y+z, y, -x'
  5  '-x+y, y, z'
  6  'y+z, y, x-y'
  7  'x, y, -y-z'
  8  '-z, y, -x'
loop_
 _atom_site_type_symbol
 _atom_site_label
 _atom_site_symmetry_multiplicity
 _atom_site_fract_x
 _atom_site_fract_y
 _atom_site_fract_z
 _atom_site_occupancy
  Ge  Ge0  1  0.00360900  0.00721800  0.99639100  1.0
  P  P1  1  0.42339100  0.84678200  0.57660900  1.0
