# generated using pymatgen
data_GePd2
_symmetry_space_group_name_H-M   P-62m
_cell_length_a   3.52600500
_cell_length_b   6.76103600
_cell_length_c   6.76103519
_cell_angle_alpha   120.00000395
_cell_angle_beta   90.00000000
_cell_angle_gamma   90.00000000
_symmetry_Int_Tables_number   189
_chemical_formula_structural   GePd2
_chemical_formula_sum   'Ge3 Pd6'
_cell_volume   139.58539600
_cell_formula_units_Z   3
loop_
 _symmetry_equiv_pos_site_id
 _symmetry_equiv_pos_as_xyz
  1  'x, y, z'
  2  '-x, -z, y-z'
  3  'x, -y+z, -y'
  4  '-x, y, z'
  5  'x, -z, y-z'
  6  '-x, -y+z, -y'
  7  'x, y-z, -z'
  8  '-x, -y, -y+z'
  9  'x, z, y'
  10  '-x, y-z, -z'
  11  'x, -y, -y+z'
  12  '-x, z, y'
loop_
 _atom_site_type_symbol
 _atom_site_label
 _atom_site_symmetry_multiplicity
 _atom_site_fract_x
 _atom_site_fract_y
 _atom_site_fract_z
 _atom_site_occupancy
  Ge  Ge0  2  0.00000000  0.33333333  0.66666667  1.0
  Ge  Ge1  1  0.50000000  0.00000000  0.00000000  1.0
  Pd  Pd2  3  0.00000000  0.00000000  0.26759900  1.0
  Pd  Pd3  3  0.50000000  0.00000000  0.60727900  1.0
