# generated using pymatgen
data_Th2Ge
_symmetry_space_group_name_H-M   I4/mcm
_cell_length_a   6.06203418
_cell_length_b   6.06203418
_cell_length_c   6.06203418
_cell_angle_alpha   104.63757154
_cell_angle_beta   104.63757154
_cell_angle_gamma   119.64286625
_symmetry_Int_Tables_number   140
_chemical_formula_structural   Th2Ge
_chemical_formula_sum   'Th4 Ge2'
_cell_volume   167.37239063
_cell_formula_units_Z   2
loop_
 _symmetry_equiv_pos_site_id
 _symmetry_equiv_pos_as_xyz
  1  'x, y, z'
  2  '-x, -y, -z'
  3  'x-z, x, x-y'
  4  '-x+z, -x, -x+y'
  5  'y-z, x-z, -z'
  6  '-y+z, -x+z, z'
  7  'y, y-z, -x+y'
  8  '-y, -y+z, x-y'
  9  '-y+z+1/2, -y+1/2, x-y'
  10  'y-z+1/2, y+1/2, -x+y'
  11  '-y+1/2, -x+1/2, -z'
  12  'y+1/2, x+1/2, z'
  13  '-x+1/2, -x+z+1/2, -x+y'
  14  'x+1/2, x-z+1/2, x-y'
  15  '-x+z+1/2, -y+z+1/2, z'
  16  'x-z+1/2, y-z+1/2, -z'
loop_
 _atom_site_type_symbol
 _atom_site_label
 _atom_site_symmetry_multiplicity
 _atom_site_fract_x
 _atom_site_fract_y
 _atom_site_fract_z
 _atom_site_occupancy
  Th  Th0  4  0.16365200  0.66365200  0.82730400  1.0
  Ge  Ge1  2  0.25000000  0.25000000  0.00000000  1.0
