# generated using pymatgen
data_Ta3Ge
_symmetry_space_group_name_H-M   P4_2/n
_cell_length_a   5.24800600
_cell_length_b   10.34020900
_cell_length_c   10.34020900
_cell_angle_alpha   90.00000000
_cell_angle_beta   90.00000000
_cell_angle_gamma   90.00000000
_symmetry_Int_Tables_number   86
_chemical_formula_structural   Ta3Ge
_chemical_formula_sum   'Ta24 Ge8'
_cell_volume   561.11639303
_cell_formula_units_Z   8
loop_
 _symmetry_equiv_pos_site_id
 _symmetry_equiv_pos_as_xyz
  1  'x, y, z'
  2  'x+1/2, -z+1/2, y+1/2'
  3  'x, -y, -z'
  4  'x+1/2, z+1/2, -y+1/2'
  5  '-x+1/2, -y+1/2, -z+1/2'
  6  '-x, z, -y'
  7  '-x+1/2, y+1/2, z+1/2'
  8  '-x, -z, y'
loop_
 _atom_site_type_symbol
 _atom_site_label
 _atom_site_symmetry_multiplicity
 _atom_site_fract_x
 _atom_site_fract_y
 _atom_site_fract_z
 _atom_site_occupancy
  Ta  Ta0  8  0.01139700  0.21247100  0.31073600  1.0
  Ta  Ta1  8  0.02744200  0.08565300  0.59752000  1.0
  Ta  Ta2  8  0.22683000  0.14899300  0.98377800  1.0
  Ge  Ge3  8  0.22372400  0.47387100  0.29557500  1.0
