# generated using pymatgen
data_GeTe
_symmetry_space_group_name_H-M   Pbcn
_cell_length_a   4.08965700
_cell_length_b   11.14210200
_cell_length_c   13.27400500
_cell_angle_alpha   90.00000000
_cell_angle_beta   90.00000000
_cell_angle_gamma   90.00000000
_symmetry_Int_Tables_number   60
_chemical_formula_structural   GeTe
_chemical_formula_sum   'Ge8 Te8'
_cell_volume   604.86156941
_cell_formula_units_Z   8
loop_
 _symmetry_equiv_pos_site_id
 _symmetry_equiv_pos_as_xyz
  1  'x, y, z'
  2  '-x, -y, -z'
  3  'x+1/2, -y+1/2, -z+1/2'
  4  '-x+1/2, y+1/2, z+1/2'
  5  '-x, -y+1/2, z+1/2'
  6  'x, y+1/2, -z+1/2'
  7  '-x+1/2, y, -z'
  8  'x+1/2, -y, z'
loop_
 _atom_site_type_symbol
 _atom_site_label
 _atom_site_symmetry_multiplicity
 _atom_site_fract_x
 _atom_site_fract_y
 _atom_site_fract_z
 _atom_site_occupancy
  Ge  Ge0  8  0.01810800  0.38955400  0.77481000  1.0
  Te  Te1  8  0.01832100  0.15510300  0.86192400  1.0
