# generated using pymatgen
data_ZrVGe
_symmetry_space_group_name_H-M   I4/mmm
_cell_length_a   3.75320200
_cell_length_b   3.75320200
_cell_length_c   7.75956624
_cell_angle_alpha   103.99537341
_cell_angle_beta   103.99537342
_cell_angle_gamma   89.99999999
_symmetry_Int_Tables_number   139
_chemical_formula_structural   ZrVGe
_chemical_formula_sum   'Zr2 V2 Ge2'
_cell_volume   102.71347661
_cell_formula_units_Z   2
loop_
 _symmetry_equiv_pos_site_id
 _symmetry_equiv_pos_as_xyz
  1  'x, y, z'
  2  '-x, -y, -z'
  3  '-y+z, x, z'
  4  'y-z, -x, -z'
  5  '-x+z, -y+z, z'
  6  'x-z, y-z, -z'
  7  'y, -x+z, z'
  8  '-y, x-z, -z'
  9  'x-z, -y, -z'
  10  '-x+z, y, z'
  11  '-y, -x, -z'
  12  'y, x, z'
  13  '-x, y-z, -z'
  14  'x, -y+z, z'
  15  'y-z, x-z, -z'
  16  '-y+z, -x+z, z'
loop_
 _atom_site_type_symbol
 _atom_site_label
 _atom_site_symmetry_multiplicity
 _atom_site_fract_x
 _atom_site_fract_y
 _atom_site_fract_z
 _atom_site_occupancy
  Zr  Zr0  2  0.32368700  0.32368700  0.64737400  1.0
  V  V1  2  0.00000000  0.50000000  0.00000000  1.0
  Ge  Ge2  2  0.12673900  0.12673900  0.25347800  1.0
