# generated using pymatgen
data_HfGe2
_symmetry_space_group_name_H-M   Cmcm
_cell_length_a   3.79449700
_cell_length_b   3.83901800
_cell_length_c   7.72109571
_cell_angle_alpha   75.60497539
_cell_angle_beta   90.00000000
_cell_angle_gamma   90.00000000
_symmetry_Int_Tables_number   63
_chemical_formula_structural   HfGe2
_chemical_formula_sum   'Hf2 Ge4'
_cell_volume   108.94314137
_cell_formula_units_Z   2
loop_
 _symmetry_equiv_pos_site_id
 _symmetry_equiv_pos_as_xyz
  1  'x, y, z'
  2  '-x, -y, -z'
  3  'x+1/2, -y, -z'
  4  '-x+1/2, y, z'
  5  '-x, y+z, -z'
  6  'x, -y-z, z'
  7  '-x+1/2, -y-z, z'
  8  'x+1/2, y+z, -z'
loop_
 _atom_site_type_symbol
 _atom_site_label
 _atom_site_symmetry_multiplicity
 _atom_site_fract_x
 _atom_site_fract_y
 _atom_site_fract_z
 _atom_site_occupancy
  Hf  Hf0  2  0.25000000  0.89585400  0.20829200  1.0
  Ge  Ge1  2  0.25000000  0.25017400  0.49965200  1.0
  Ge  Ge2  2  0.25000000  0.56096000  0.87808000  1.0
