# generated using pymatgen
data_La(GePt)2
_symmetry_space_group_name_H-M   P2_1/c
_cell_length_a   4.48751300
_cell_length_b   8.94685900
_cell_length_c   9.93198002
_cell_angle_alpha   90.81184977
_cell_angle_beta   90.00000000
_cell_angle_gamma   90.00000000
_symmetry_Int_Tables_number   14
_chemical_formula_structural   La(GePt)2
_chemical_formula_sum   'La4 Ge8 Pt8'
_cell_volume   398.72048703
_cell_formula_units_Z   4
loop_
 _symmetry_equiv_pos_site_id
 _symmetry_equiv_pos_as_xyz
  1  'x, y, z'
  2  '-x, -y, -z'
  3  'x+1/2, -y+1/2, -z'
  4  '-x+1/2, y+1/2, z'
loop_
 _atom_site_type_symbol
 _atom_site_label
 _atom_site_symmetry_multiplicity
 _atom_site_fract_x
 _atom_site_fract_y
 _atom_site_fract_z
 _atom_site_occupancy
  La  La0  4  0.24494700  0.37302100  0.75575400  1.0
  Ge  Ge1  4  0.20572900  0.38780900  0.37733900  1.0
  Ge  Ge2  4  0.24259300  0.12536900  0.99926600  1.0
  Pt  Pt3  4  0.19354400  0.13868100  0.50010800  1.0
  Pt  Pt4  4  0.24344700  0.37694100  0.12418200  1.0
