# generated using pymatgen
data_LuGe2
_symmetry_space_group_name_H-M   Cmcm
_cell_length_a   3.88536700
_cell_length_b   4.04295200
_cell_length_c   8.01138973
_cell_angle_alpha   75.38484811
_cell_angle_beta   90.00000000
_cell_angle_gamma   90.00000000
_symmetry_Int_Tables_number   63
_chemical_formula_structural   LuGe2
_chemical_formula_sum   'Lu2 Ge4'
_cell_volume   121.77367596
_cell_formula_units_Z   2
loop_
 _symmetry_equiv_pos_site_id
 _symmetry_equiv_pos_as_xyz
  1  'x, y, z'
  2  '-x, -y, -z'
  3  'x+1/2, -y, -z'
  4  '-x+1/2, y, z'
  5  '-x, y+z, -z'
  6  'x, -y-z, z'
  7  '-x+1/2, -y-z, z'
  8  'x+1/2, y+z, -z'
loop_
 _atom_site_type_symbol
 _atom_site_label
 _atom_site_symmetry_multiplicity
 _atom_site_fract_x
 _atom_site_fract_y
 _atom_site_fract_z
 _atom_site_occupancy
  Lu  Lu0  2  0.25000000  0.10234800  0.79530400  1.0
  Ge  Ge1  2  0.25000000  0.44387200  0.11225600  1.0
  Ge  Ge2  2  0.25000000  0.74746900  0.50506200  1.0
