# generated using pymatgen
data_Ge2Mo
_symmetry_space_group_name_H-M   Pnma
_cell_length_a   3.48578100
_cell_length_b   6.40446700
_cell_length_c   8.64668000
_cell_angle_alpha   90.00000000
_cell_angle_beta   90.00000000
_cell_angle_gamma   90.00000000
_symmetry_Int_Tables_number   62
_chemical_formula_structural   Ge2Mo
_chemical_formula_sum   'Ge8 Mo4'
_cell_volume   193.03340760
_cell_formula_units_Z   4
loop_
 _symmetry_equiv_pos_site_id
 _symmetry_equiv_pos_as_xyz
  1  'x, y, z'
  2  '-x, -y, -z'
  3  '-x, -y+1/2, z+1/2'
  4  'x, y+1/2, -z+1/2'
  5  '-x+1/2, y+1/2, -z+1/2'
  6  'x+1/2, -y+1/2, z+1/2'
  7  'x+1/2, -y, -z'
  8  '-x+1/2, y, z'
loop_
 _atom_site_type_symbol
 _atom_site_label
 _atom_site_symmetry_multiplicity
 _atom_site_fract_x
 _atom_site_fract_y
 _atom_site_fract_z
 _atom_site_occupancy
  Ge  Ge0  4  0.25000000  0.36400000  0.54085200  1.0
  Ge  Ge1  4  0.25000000  0.43908200  0.13280600  1.0
  Mo  Mo2  4  0.25000000  0.24947700  0.82883300  1.0
