# generated using pymatgen
data_ReGe2
_symmetry_space_group_name_H-M   C2/m
_cell_length_a   3.20371000
_cell_length_b   4.85885970
_cell_length_c   6.96665507
_cell_angle_alpha   77.66462112
_cell_angle_beta   76.70694801
_cell_angle_gamma   70.75081925
_symmetry_Int_Tables_number   12
_chemical_formula_structural   ReGe2
_chemical_formula_sum   'Re2 Ge4'
_cell_volume   98.51212969
_cell_formula_units_Z   2
loop_
 _symmetry_equiv_pos_site_id
 _symmetry_equiv_pos_as_xyz
  1  'x, y, z'
  2  '-x, -y, -z'
  3  'x+y+z, -y, -z'
  4  '-x-y-z, y, z'
loop_
 _atom_site_type_symbol
 _atom_site_label
 _atom_site_symmetry_multiplicity
 _atom_site_fract_x
 _atom_site_fract_y
 _atom_site_fract_z
 _atom_site_occupancy
  Re  Re0  2  0.14996300  0.88969100  0.81038300  1.0
  Ge  Ge1  2  0.14784100  0.24225900  0.46205900  1.0
  Ge  Ge2  2  0.40012800  0.31377700  0.88596700  1.0
