# generated using pymatgen
data_ScGe2
_symmetry_space_group_name_H-M   Cmcm
_cell_length_a   3.84777000
_cell_length_b   3.91986200
_cell_length_c   7.67730593
_cell_angle_alpha   104.79070461
_cell_angle_beta   90.00000000
_cell_angle_gamma   90.00000000
_symmetry_Int_Tables_number   63
_chemical_formula_structural   ScGe2
_chemical_formula_sum   'Sc2 Ge4'
_cell_volume   111.95783371
_cell_formula_units_Z   2
loop_
 _symmetry_equiv_pos_site_id
 _symmetry_equiv_pos_as_xyz
  1  'x, y, z'
  2  '-x, -y, -z'
  3  'x+1/2, -y, -z'
  4  '-x+1/2, y, z'
  5  '-x, y-z, -z'
  6  'x, -y+z, z'
  7  '-x+1/2, -y+z, z'
  8  'x+1/2, y-z, -z'
loop_
 _atom_site_type_symbol
 _atom_site_label
 _atom_site_symmetry_multiplicity
 _atom_site_fract_x
 _atom_site_fract_y
 _atom_site_fract_z
 _atom_site_occupancy
  Sc  Sc0  2  0.25000000  0.10052400  0.20104800  1.0
  Ge  Ge1  2  0.25000000  0.44030800  0.88061600  1.0
  Ge  Ge2  2  0.25000000  0.74873900  0.49747800  1.0
