# generated using pymatgen
data_UGe2
_symmetry_space_group_name_H-M   Cmcm
_cell_length_a   3.97815900
_cell_length_b   4.18228800
_cell_length_c   7.76892239
_cell_angle_alpha   74.38524597
_cell_angle_beta   90.00000000
_cell_angle_gamma   90.00000000
_symmetry_Int_Tables_number   63
_chemical_formula_structural   UGe2
_chemical_formula_sum   'U2 Ge4'
_cell_volume   124.48734691
_cell_formula_units_Z   2
loop_
 _symmetry_equiv_pos_site_id
 _symmetry_equiv_pos_as_xyz
  1  'x, y, z'
  2  '-x, -y, -z'
  3  'x+1/2, -y, -z'
  4  '-x+1/2, y, z'
  5  '-x, y+z, -z'
  6  'x, -y-z, z'
  7  '-x+1/2, -y-z, z'
  8  'x+1/2, y+z, -z'
loop_
 _atom_site_type_symbol
 _atom_site_label
 _atom_site_symmetry_multiplicity
 _atom_site_fract_x
 _atom_site_fract_y
 _atom_site_fract_z
 _atom_site_occupancy
  U  U0  2  0.25000000  0.89991400  0.20017200  1.0
  Ge  Ge1  2  0.25000000  0.25245400  0.49509200  1.0
  Ge  Ge2  2  0.25000000  0.56081300  0.87837400  1.0
