# generated using pymatgen
data_UGe2
_symmetry_space_group_name_H-M   Cmmm
_cell_length_a   4.06662600
_cell_length_b   4.21235100
_cell_length_c   7.40537732
_cell_angle_alpha   90.00000000
_cell_angle_beta   105.93653988
_cell_angle_gamma   90.00000000
_symmetry_Int_Tables_number   65
_chemical_formula_structural   UGe2
_chemical_formula_sum   'U2 Ge4'
_cell_volume   121.97905255
_cell_formula_units_Z   2
loop_
 _symmetry_equiv_pos_site_id
 _symmetry_equiv_pos_as_xyz
  1  'x, y, z'
  2  '-x, -y, -z'
  3  '-x, y, -z'
  4  'x, -y, z'
  5  'x-z, -y, -z'
  6  '-x+z, y, z'
  7  '-x+z, -y, z'
  8  'x-z, y, -z'
loop_
 _atom_site_type_symbol
 _atom_site_label
 _atom_site_symmetry_multiplicity
 _atom_site_fract_x
 _atom_site_fract_y
 _atom_site_fract_z
 _atom_site_occupancy
  U  U0  2  0.14697100  0.50000000  0.29394200  1.0
  Ge  Ge1  2  0.31607200  0.00000000  0.63214400  1.0
  Ge  Ge2  1  0.00000000  0.00000000  0.00000000  1.0
  Ge  Ge3  1  0.50000000  0.50000000  0.00000000  1.0
