# generated using pymatgen
data_Ge3N4
_symmetry_space_group_name_H-M   Pnma
_cell_length_a   4.89655500
_cell_length_b   5.95396500
_cell_length_c   10.10816700
_cell_angle_alpha   90.00000000
_cell_angle_beta   90.00000000
_cell_angle_gamma   90.00000000
_symmetry_Int_Tables_number   62
_chemical_formula_structural   Ge3N4
_chemical_formula_sum   'Ge12 N16'
_cell_volume   294.69266266
_cell_formula_units_Z   4
loop_
 _symmetry_equiv_pos_site_id
 _symmetry_equiv_pos_as_xyz
  1  'x, y, z'
  2  '-x, -y, -z'
  3  'x+1/2, -y, -z+1/2'
  4  '-x+1/2, y, z+1/2'
  5  '-x+1/2, -y+1/2, z+1/2'
  6  'x+1/2, y+1/2, -z+1/2'
  7  '-x, y+1/2, -z'
  8  'x, -y+1/2, z'
loop_
 _atom_site_type_symbol
 _atom_site_label
 _atom_site_symmetry_multiplicity
 _atom_site_fract_x
 _atom_site_fract_y
 _atom_site_fract_z
 _atom_site_occupancy
  Ge  Ge0  4  0.00000000  0.00000000  0.00000000  1.0
  Ge  Ge1  4  0.01095500  0.75000000  0.27913500  1.0
  Ge  Ge2  4  0.05120800  0.25000000  0.40449100  1.0
  N  N3  8  0.24107800  0.00427900  0.33756200  1.0
  N  N4  4  0.17894100  0.75000000  0.09461300  1.0
  N  N5  4  0.24291600  0.25000000  0.56858600  1.0
