# generated using pymatgen
data_Nb5Ge3
_symmetry_space_group_name_H-M   I4/mcm
_cell_length_a   6.73465000
_cell_length_b   6.73465000
_cell_length_c   7.67939625
_cell_angle_alpha   116.00746510
_cell_angle_beta   116.00746506
_cell_angle_gamma   90.00000000
_symmetry_Int_Tables_number   140
_chemical_formula_structural   Nb5Ge3
_chemical_formula_sum   'Nb10 Ge6'
_cell_volume   273.24717669
_cell_formula_units_Z   2
loop_
 _symmetry_equiv_pos_site_id
 _symmetry_equiv_pos_as_xyz
  1  'x, y, z'
  2  '-x, -y, -z'
  3  '-y+z, x, z'
  4  'y-z, -x, -z'
  5  '-x+z, -y+z, z'
  6  'x-z, y-z, -z'
  7  'y, -x+z, z'
  8  '-y, x-z, -z'
  9  'x-z+1/2, -y+1/2, -z'
  10  '-x+z+1/2, y+1/2, z'
  11  '-y+1/2, -x+1/2, -z'
  12  'y+1/2, x+1/2, z'
  13  '-x+1/2, y-z+1/2, -z'
  14  'x+1/2, -y+z+1/2, z'
  15  'y-z+1/2, x-z+1/2, -z'
  16  '-y+z+1/2, -x+z+1/2, z'
loop_
 _atom_site_type_symbol
 _atom_site_label
 _atom_site_symmetry_multiplicity
 _atom_site_fract_x
 _atom_site_fract_y
 _atom_site_fract_z
 _atom_site_occupancy
  Nb  Nb0  8  0.01146900  0.18409300  0.69556200  1.0
  Nb  Nb1  2  0.00000000  0.00000000  0.00000000  1.0
  Ge  Ge2  4  0.13463400  0.63463400  0.00000000  1.0
  Ge  Ge3  2  0.25000000  0.25000000  0.50000000  1.0
