# generated using pymatgen
data_Ge3N4
_symmetry_space_group_name_H-M   P31c
_cell_length_a   5.98956200
_cell_length_b   8.27856000
_cell_length_c   8.27855977
_cell_angle_alpha   120.00000093
_cell_angle_beta   90.00000000
_cell_angle_gamma   90.00000000
_symmetry_Int_Tables_number   159
_chemical_formula_structural   Ge3N4
_chemical_formula_sum   'Ge12 N16'
_cell_volume   355.49646116
_cell_formula_units_Z   4
loop_
 _symmetry_equiv_pos_site_id
 _symmetry_equiv_pos_as_xyz
  1  'x, y, z'
  2  'x, -z, y-z'
  3  'x, -y+z, -y'
  4  'x+1/2, y-z, -z'
  5  'x+1/2, -y, -y+z'
  6  'x+1/2, z, y'
loop_
 _atom_site_type_symbol
 _atom_site_label
 _atom_site_symmetry_multiplicity
 _atom_site_fract_x
 _atom_site_fract_y
 _atom_site_fract_z
 _atom_site_occupancy
  Ge  Ge0  6  0.27173100  0.50998400  0.08183300  1.0
  Ge  Ge1  6  0.47758400  0.08488100  0.83164500  1.0
  N  N2  6  0.00143500  0.38424700  0.04135400  1.0
  N  N3  6  0.22989200  0.32001500  0.31919000  1.0
  N  N4  2  0.32648100  0.66666667  0.33333333  1.0
  N  N5  2  0.48159400  0.00000000  0.00000000  1.0
