# generated using pymatgen
data_YNiGe3
_symmetry_space_group_name_H-M   Cmmm
_cell_length_a   4.09576500
_cell_length_b   4.11233600
_cell_length_c   11.04454666
_cell_angle_alpha   79.27062135
_cell_angle_beta   90.00000000
_cell_angle_gamma   90.00000000
_symmetry_Int_Tables_number   65
_chemical_formula_structural   YNiGe3
_chemical_formula_sum   'Y2 Ni2 Ge6'
_cell_volume   182.77289713
_cell_formula_units_Z   2
loop_
 _symmetry_equiv_pos_site_id
 _symmetry_equiv_pos_as_xyz
  1  'x, y, z'
  2  '-x, -y, -z'
  3  'x, -y, -z'
  4  '-x, y, z'
  5  '-x, y+z, -z'
  6  'x, -y-z, z'
  7  '-x, -y-z, z'
  8  'x, y+z, -z'
loop_
 _atom_site_type_symbol
 _atom_site_label
 _atom_site_symmetry_multiplicity
 _atom_site_fract_x
 _atom_site_fract_y
 _atom_site_fract_z
 _atom_site_occupancy
  Y  Y0  2  0.50000000  0.16924800  0.66150400  1.0
  Ni  Ni1  2  0.00000000  0.38951600  0.22096800  1.0
  Ge  Ge2  2  0.00000000  0.05742800  0.88514400  1.0
  Ge  Ge3  2  0.00000000  0.28338900  0.43322200  1.0
  Ge  Ge4  2  0.50000000  0.44274400  0.11451200  1.0
