# generated using pymatgen
data_SrGe3Pt
_symmetry_space_group_name_H-M   I4mm
_cell_length_a   4.52679000
_cell_length_b   4.52679000
_cell_length_c   6.08929687
_cell_angle_alpha   111.82053294
_cell_angle_beta   111.82053295
_cell_angle_gamma   90.00000000
_symmetry_Int_Tables_number   107
_chemical_formula_structural   SrGe3Pt
_chemical_formula_sum   'Sr1 Ge3 Pt1'
_cell_volume   106.15008558
_cell_formula_units_Z   1
loop_
 _symmetry_equiv_pos_site_id
 _symmetry_equiv_pos_as_xyz
  1  'x, y, z'
  2  '-y+z, x, z'
  3  '-x+z, -y+z, z'
  4  'y, -x+z, z'
  5  '-x+z, y, z'
  6  'y, x, z'
  7  'x, -y+z, z'
  8  '-y+z, -x+z, z'
loop_
 _atom_site_type_symbol
 _atom_site_label
 _atom_site_symmetry_multiplicity
 _atom_site_fract_x
 _atom_site_fract_y
 _atom_site_fract_z
 _atom_site_occupancy
  Sr  Sr0  1  0.00043200  0.00043200  0.00086400  1.0
  Ge  Ge1  2  0.25511100  0.75511100  0.51022200  1.0
  Ge  Ge2  1  0.40376800  0.40376800  0.80753600  1.0
  Pt  Pt3  1  0.64557700  0.64557700  0.29115400  1.0
