# generated using pymatgen
data_SrGe3Pd
_symmetry_space_group_name_H-M   I4mm
_cell_length_a   4.51045200
_cell_length_b   4.51045200
_cell_length_c   6.11174542
_cell_angle_alpha   111.65387662
_cell_angle_beta   111.65387662
_cell_angle_gamma   90.00000001
_symmetry_Int_Tables_number   107
_chemical_formula_structural   SrGe3Pd
_chemical_formula_sum   'Sr1 Ge3 Pd1'
_cell_volume   106.06585323
_cell_formula_units_Z   1
loop_
 _symmetry_equiv_pos_site_id
 _symmetry_equiv_pos_as_xyz
  1  'x, y, z'
  2  '-y+z, x, z'
  3  '-x+z, -y+z, z'
  4  'y, -x+z, z'
  5  '-x+z, y, z'
  6  'y, x, z'
  7  'x, -y+z, z'
  8  '-y+z, -x+z, z'
loop_
 _atom_site_type_symbol
 _atom_site_label
 _atom_site_symmetry_multiplicity
 _atom_site_fract_x
 _atom_site_fract_y
 _atom_site_fract_z
 _atom_site_occupancy
  Sr  Sr0  1  0.99994200  0.99994200  0.99988400  1.0
  Ge  Ge1  2  0.25351600  0.75351600  0.50703200  1.0
  Ge  Ge2  1  0.39982500  0.39982500  0.79965000  1.0
  Pd  Pd3  1  0.64089800  0.64089800  0.28179600  1.0
