# generated using pymatgen
data_Ge3Rh5
_symmetry_space_group_name_H-M   Pbam
_cell_length_a   4.04134500
_cell_length_b   5.49922200
_cell_length_c   10.49367700
_cell_angle_alpha   90.00000000
_cell_angle_beta   90.00000000
_cell_angle_gamma   90.00000000
_symmetry_Int_Tables_number   55
_chemical_formula_structural   Ge3Rh5
_chemical_formula_sum   'Ge6 Rh10'
_cell_volume   233.21413605
_cell_formula_units_Z   2
loop_
 _symmetry_equiv_pos_site_id
 _symmetry_equiv_pos_as_xyz
  1  'x, y, z'
  2  '-x, -y, -z'
  3  'x, -y, -z'
  4  '-x, y, z'
  5  '-x, y+1/2, -z+1/2'
  6  'x, -y+1/2, z+1/2'
  7  '-x, -y+1/2, z+1/2'
  8  'x, y+1/2, -z+1/2'
loop_
 _atom_site_type_symbol
 _atom_site_label
 _atom_site_symmetry_multiplicity
 _atom_site_fract_x
 _atom_site_fract_y
 _atom_site_fract_z
 _atom_site_occupancy
  Ge  Ge0  4  0.50000000  0.10799200  0.65137300  1.0
  Ge  Ge1  2  0.00000000  0.00000000  0.00000000  1.0
  Rh  Rh2  4  0.00000000  0.15019400  0.21779100  1.0
  Rh  Rh3  4  0.50000000  0.17119000  0.89329900  1.0
  Rh  Rh4  2  0.00000000  0.00000000  0.50000000  1.0
