# generated using pymatgen
data_YGe3
_symmetry_space_group_name_H-M   Cmcm
_cell_length_a   3.94230200
_cell_length_b   4.05342400
_cell_length_c   10.70880118
_cell_angle_alpha   100.90940722
_cell_angle_beta   90.00000000
_cell_angle_gamma   90.00000000
_symmetry_Int_Tables_number   63
_chemical_formula_structural   YGe3
_chemical_formula_sum   'Y2 Ge6'
_cell_volume   168.03210616
_cell_formula_units_Z   2
loop_
 _symmetry_equiv_pos_site_id
 _symmetry_equiv_pos_as_xyz
  1  'x, y, z'
  2  '-x, -y, -z'
  3  'x+1/2, -y, -z'
  4  '-x+1/2, y, z'
  5  '-x, y-z, -z'
  6  'x, -y+z, z'
  7  '-x+1/2, -y+z, z'
  8  'x+1/2, y-z, -z'
loop_
 _atom_site_type_symbol
 _atom_site_label
 _atom_site_symmetry_multiplicity
 _atom_site_fract_x
 _atom_site_fract_y
 _atom_site_fract_z
 _atom_site_occupancy
  Y  Y0  2  0.25000000  0.41761100  0.83522200  1.0
  Ge  Ge1  2  0.25000000  0.03923600  0.07847200  1.0
  Ge  Ge2  2  0.25000000  0.69133400  0.38266800  1.0
  Ge  Ge3  2  0.25000000  0.81058500  0.62117000  1.0
