# generated using pymatgen
data_Yb2Ge4Ru3
_symmetry_space_group_name_H-M   C2/c
_cell_length_a   5.55407600
_cell_length_b   10.45297379
_cell_length_c   11.43305023
_cell_angle_alpha   79.88473428
_cell_angle_beta   75.94249365
_cell_angle_gamma   74.59325207
_symmetry_Int_Tables_number   15
_chemical_formula_structural   Yb2Ge4Ru3
_chemical_formula_sum   'Yb8 Ge16 Ru12'
_cell_volume   616.35155509
_cell_formula_units_Z   4
loop_
 _symmetry_equiv_pos_site_id
 _symmetry_equiv_pos_as_xyz
  1  'x, y, z'
  2  '-x, -y, -z'
  3  'x+y+z, -y+1/2, -z+1/2'
  4  '-x-y-z, y+1/2, z+1/2'
loop_
 _atom_site_type_symbol
 _atom_site_label
 _atom_site_symmetry_multiplicity
 _atom_site_fract_x
 _atom_site_fract_y
 _atom_site_fract_z
 _atom_site_occupancy
  Yb  Yb0  4  0.03951500  0.53089700  0.14624400  1.0
  Yb  Yb1  4  0.29911900  0.99503100  0.14202300  1.0
  Ge  Ge2  4  0.03796000  0.61872500  0.59961100  1.0
  Ge  Ge3  4  0.09470000  0.27362100  0.06535900  1.0
  Ge  Ge4  4  0.13760100  0.07374800  0.39877800  1.0
  Ge  Ge5  2  0.13064400  0.75000000  0.25000000  1.0
  Ge  Ge6  2  0.38043100  0.25000000  0.75000000  1.0
  Ru  Ru7  4  0.10127400  0.12564000  0.91168300  1.0
  Ru  Ru8  4  0.15153800  0.75808500  0.72375900  1.0
  Ru  Ru9  4  0.24297300  0.81218100  0.43832500  1.0
