# generated using pymatgen
data_LaGe5
_symmetry_space_group_name_H-M   Immm
_cell_length_a   4.05224000
_cell_length_b   6.28016061
_cell_length_c   6.28016061
_cell_angle_alpha   60.65600105
_cell_angle_beta   71.17841383
_cell_angle_gamma   71.17841384
_symmetry_Int_Tables_number   71
_chemical_formula_structural   LaGe5
_chemical_formula_sum   'La1 Ge5'
_cell_volume   129.21816763
_cell_formula_units_Z   1
loop_
 _symmetry_equiv_pos_site_id
 _symmetry_equiv_pos_as_xyz
  1  'x, y, z'
  2  '-x, -y, -z'
  3  '-x-y-z, z, y'
  4  'x+y+z, -z, -y'
  5  'x+y+z, -y, -z'
  6  '-x-y-z, y, z'
  7  '-x, -z, -y'
  8  'x, z, y'
loop_
 _atom_site_type_symbol
 _atom_site_label
 _atom_site_symmetry_multiplicity
 _atom_site_fract_x
 _atom_site_fract_y
 _atom_site_fract_z
 _atom_site_occupancy
  La  La0  1  0.00000000  0.00000000  0.00000000  1.0
  Ge  Ge1  4  0.32792700  0.87433500  0.46981100  1.0
  Ge  Ge2  1  0.00000000  0.50000000  0.50000000  1.0
