# generated using pymatgen
data_Y3(Ge3Pt2)2
_symmetry_space_group_name_H-M   P2_1/m
_cell_length_a   4.36151500
_cell_length_b   8.80589400
_cell_length_c   13.37570614
_cell_angle_alpha   99.45899339
_cell_angle_beta   90.00000000
_cell_angle_gamma   90.00000000
_symmetry_Int_Tables_number   11
_chemical_formula_structural   Y3(Ge3Pt2)2
_chemical_formula_sum   'Y6 Ge12 Pt8'
_cell_volume   506.73643953
_cell_formula_units_Z   2
loop_
 _symmetry_equiv_pos_site_id
 _symmetry_equiv_pos_as_xyz
  1  'x, y, z'
  2  '-x, -y, -z'
  3  'x+1/2, -y, -z'
  4  '-x+1/2, y, z'
loop_
 _atom_site_type_symbol
 _atom_site_label
 _atom_site_symmetry_multiplicity
 _atom_site_fract_x
 _atom_site_fract_y
 _atom_site_fract_z
 _atom_site_occupancy
  Y  Y0  2  0.25000000  0.06568500  0.81393500  1.0
  Y  Y1  2  0.25000000  0.59030400  0.81247900  1.0
  Y  Y2  2  0.25000000  0.76528500  0.56149000  1.0
  Ge  Ge3  2  0.25000000  0.11955000  0.56712400  1.0
  Ge  Ge4  2  0.25000000  0.19433600  0.27797600  1.0
  Ge  Ge5  2  0.25000000  0.37736200  0.99840500  1.0
  Ge  Ge6  2  0.25000000  0.41393900  0.56773100  1.0
  Ge  Ge7  2  0.25000000  0.69605800  0.28410500  1.0
  Ge  Ge8  2  0.25000000  0.87378700  0.00567100  1.0
  Pt  Pt9  2  0.25000000  0.15135000  0.09112500  1.0
  Pt  Pt10  2  0.25000000  0.46681000  0.37568400  1.0
  Pt  Pt11  2  0.25000000  0.64684600  0.10061400  1.0
  Pt  Pt12  2  0.25000000  0.97033000  0.37535200  1.0
