# generated using pymatgen
data_V2.04H0.96
_symmetry_space_group_name_H-M   C2/m
_cell_length_a   2.66696892
_cell_length_b   2.66696892
_cell_length_c   4.44359888
_cell_angle_alpha   83.90276366
_cell_angle_beta   83.90276366
_cell_angle_gamma   67.19045380
_symmetry_Int_Tables_number   12
_chemical_formula_structural   V2.04H0.96
_chemical_formula_sum   'V2.04 H0.96'
_cell_volume   28.89661153
_cell_formula_units_Z   1
loop_
 _symmetry_equiv_pos_site_id
 _symmetry_equiv_pos_as_xyz
  1  'x, y, z'
  2  '-x, -y, -z'
  3  '-y, -x, -z'
  4  'y, x, z'
loop_
 _atom_site_type_symbol
 _atom_site_label
 _atom_site_symmetry_multiplicity
 _atom_site_fract_x
 _atom_site_fract_y
 _atom_site_fract_z
 _atom_site_occupancy
  V  V0  2  0.26960300  0.26960300  0.26838500  1.0
  H  H1  1  0.00000000  0.00000000  0.00000000  0.96
  V  V2  1  0.00000000  0.00000000  0.00000000  0.04
