# generated using pymatgen
data_V8.16H3.84
_symmetry_space_group_name_H-M   I4_1/amd
_cell_length_a   5.34142961
_cell_length_b   5.34142961
_cell_length_c   5.34142961
_cell_angle_alpha   77.29402367
_cell_angle_beta   67.04388148
_cell_angle_gamma   112.95611852
_symmetry_Int_Tables_number   141
_chemical_formula_structural   V8.16H3.84
_chemical_formula_sum   'V8.16 H3.84'
_cell_volume   116.10759365
_cell_formula_units_Z   1
loop_
 _symmetry_equiv_pos_site_id
 _symmetry_equiv_pos_as_xyz
  1  'x, y, z'
  2  '-y-z+1/2, -z+1/4, x+z+1/4'
  3  '-x, -x-z, x-y'
  4  'y+z+1/2, -x+y+1/4, -y+1/4'
  5  '-y-z+1/2, -y+1/4, -x+y+1/4'
  6  '-x, z, y'
  7  'y+z+1/2, x+z+1/4, -z+1/4'
  8  'x, x-y, -x-z'
  9  '-x+1/2, -y+1/4, -z+1/4'
  10  'y+z, z, -x-z'
  11  'x+1/2, x+z+1/4, -x+y+1/4'
  12  '-y-z, x-y, y'
  13  'y+z, y, x-y'
  14  'x+1/2, -z+1/4, -y+1/4'
  15  '-y-z, -x-z, z'
  16  '-x+1/2, -x+y+1/4, x+z+1/4'
loop_
 _atom_site_type_symbol
 _atom_site_label
 _atom_site_symmetry_multiplicity
 _atom_site_fract_x
 _atom_site_fract_y
 _atom_site_fract_z
 _atom_site_occupancy
  V  V0  8  0.24846000  0.39258900  0.85587200  1.0
  H  H1  4  0.25000000  0.12500000  0.12500000  0.96
  V  V2  4  0.25000000  0.12500000  0.12500000  0.04
