# generated using pymatgen
data_TiH2
_symmetry_space_group_name_H-M   P4_2/mnm
_cell_length_a   3.13590900
_cell_length_b   3.94654600
_cell_length_c   3.94654600
_cell_angle_alpha   90.00000000
_cell_angle_beta   90.00000000
_cell_angle_gamma   90.00000000
_symmetry_Int_Tables_number   136
_chemical_formula_structural   TiH2
_chemical_formula_sum   'Ti2 H4'
_cell_volume   48.84248929
_cell_formula_units_Z   2
loop_
 _symmetry_equiv_pos_site_id
 _symmetry_equiv_pos_as_xyz
  1  'x, y, z'
  2  '-x, -y, -z'
  3  'x+1/2, -z+1/2, y+1/2'
  4  '-x+1/2, z+1/2, -y+1/2'
  5  'x, -y, -z'
  6  '-x, y, z'
  7  'x+1/2, z+1/2, -y+1/2'
  8  '-x+1/2, -z+1/2, y+1/2'
  9  '-x+1/2, y+1/2, -z+1/2'
  10  'x+1/2, -y+1/2, z+1/2'
  11  '-x, -z, -y'
  12  'x, z, y'
  13  '-x+1/2, -y+1/2, z+1/2'
  14  'x+1/2, y+1/2, -z+1/2'
  15  '-x, z, y'
  16  'x, -z, -y'
loop_
 _atom_site_type_symbol
 _atom_site_label
 _atom_site_symmetry_multiplicity
 _atom_site_fract_x
 _atom_site_fract_y
 _atom_site_fract_z
 _atom_site_occupancy
  Ti  Ti0  2  0.00000000  0.00000000  0.00000000  1.0
  H  H1  4  0.00000000  0.32657300  0.32657300  1.0
