# generated using pymatgen
data_SiH4
_symmetry_space_group_name_H-M   P2_1/c
_cell_length_a   5.05962500
_cell_length_b   7.64902700
_cell_length_c   7.69349057
_cell_angle_alpha   103.67910474
_cell_angle_beta   90.00000000
_cell_angle_gamma   90.00000000
_symmetry_Int_Tables_number   14
_chemical_formula_structural   SiH4
_chemical_formula_sum   'Si4 H16'
_cell_volume   289.30190363
_cell_formula_units_Z   4
loop_
 _symmetry_equiv_pos_site_id
 _symmetry_equiv_pos_as_xyz
  1  'x, y, z'
  2  '-x, -y, -z'
  3  'x+1/2, -y, -z+1/2'
  4  '-x+1/2, y, z+1/2'
loop_
 _atom_site_type_symbol
 _atom_site_label
 _atom_site_symmetry_multiplicity
 _atom_site_fract_x
 _atom_site_fract_y
 _atom_site_fract_z
 _atom_site_occupancy
  Si  Si0  4  0.07420800  0.24891500  0.86423100  1.0
  H  H1  4  0.06221600  0.79465900  0.97925300  1.0
  H  H2  4  0.06608100  0.59960900  0.18819600  1.0
  H  H3  4  0.07221700  0.08785700  0.71090600  1.0
  H  H4  4  0.14707200  0.30311200  0.41370800  1.0
