# generated using pymatgen
data_Hf1.98Ta0.02V4
_symmetry_space_group_name_H-M   I4_1/amd
_cell_length_a   5.14774585
_cell_length_b   5.14774585
_cell_length_c   5.14774585
_cell_angle_alpha   92.31799836
_cell_angle_beta   118.67084938
_cell_angle_gamma   118.67084938
_symmetry_Int_Tables_number   141
_chemical_formula_structural   Hf1.98Ta0.02V4
_chemical_formula_sum   'Hf1.98 Ta0.02 V4'
_cell_volume   98.30836771
_cell_formula_units_Z   1
loop_
 _symmetry_equiv_pos_site_id
 _symmetry_equiv_pos_as_xyz
  1  'x, y, z'
  2  '-y+z+1/2, z+3/4, -x+z+1/4'
  3  '-x, -x+z, -x+y'
  4  'y-z+1/2, -x+y+3/4, y+1/4'
  5  '-y+z+1/2, -y+3/4, x-y+1/4'
  6  '-x, -z, -y'
  7  'y-z+1/2, x-z+3/4, -z+1/4'
  8  'x, x-y, x-z'
  9  '-x+1/2, -y+3/4, -z+1/4'
  10  'y-z, -z, x-z'
  11  'x+1/2, x-z+3/4, x-y+1/4'
  12  '-y+z, x-y, -y'
  13  'y-z, y, -x+y'
  14  'x+1/2, z+3/4, y+1/4'
  15  '-y+z, -x+z, z'
  16  '-x+1/2, -x+y+3/4, -x+z+1/4'
loop_
 _atom_site_type_symbol
 _atom_site_label
 _atom_site_symmetry_multiplicity
 _atom_site_fract_x
 _atom_site_fract_y
 _atom_site_fract_z
 _atom_site_occupancy
  Hf  Hf0  2  0.00000000  0.50000000  0.50000000  0.99
  Ta  Ta1  2  0.00000000  0.50000000  0.50000000  0.01
  V  V2  4  0.25000000  0.37500000  0.12500000  1.0
