# generated using pymatgen
data_Hf1.74Zr0.26V4
_symmetry_space_group_name_H-M   Imma
_cell_length_a   5.12364000
_cell_length_b   5.16869293
_cell_length_c   5.16869293
_cell_angle_alpha   61.17736673
_cell_angle_beta   60.28792316
_cell_angle_gamma   60.28792315
_symmetry_Int_Tables_number   74
_chemical_formula_structural   Hf1.74Zr0.26V4
_chemical_formula_sum   'Hf1.74 Zr0.26 V4'
_cell_volume   98.05084858
_cell_formula_units_Z   1
loop_
 _symmetry_equiv_pos_site_id
 _symmetry_equiv_pos_as_xyz
  1  'x, y, z'
  2  '-x, -y, -z'
  3  '-x-y-z, z+1/2, y+1/2'
  4  'x+y+z, -z+1/2, -y+1/2'
  5  'x+y+z, -y, -z'
  6  '-x-y-z, y, z'
  7  '-x, -z+1/2, -y+1/2'
  8  'x, z+1/2, y+1/2'
loop_
 _atom_site_type_symbol
 _atom_site_label
 _atom_site_symmetry_multiplicity
 _atom_site_fract_x
 _atom_site_fract_y
 _atom_site_fract_z
 _atom_site_occupancy
  Hf  Hf0  2  0.37547600  0.37452400  0.87452400  0.87
  Zr  Zr1  2  0.37547600  0.37452400  0.87452400  0.13
  V  V2  2  0.00000000  0.00000000  0.00000000  1.0
  V  V3  2  0.00000000  0.00000000  0.50000000  1.0
