# generated using pymatgen
data_Hf0.99W2.01
_symmetry_space_group_name_H-M   Fmmm
_cell_length_a   2.87266858
_cell_length_b   2.87266858
_cell_length_c   7.08814859
_cell_angle_alpha   97.38879537
_cell_angle_beta   97.38879537
_cell_angle_gamma   111.43006002
_symmetry_Int_Tables_number   69
_chemical_formula_structural   Hf0.99W2.01
_chemical_formula_sum   'Hf0.99 W2.01'
_cell_volume   53.01112690
_cell_formula_units_Z   1
loop_
 _symmetry_equiv_pos_site_id
 _symmetry_equiv_pos_as_xyz
  1  'x, y, z'
  2  '-x, -y, -z'
  3  '-x+z, -y+z, z'
  4  'x-z, y-z, -z'
  5  'y-z, x-z, -z'
  6  '-y+z, -x+z, z'
  7  '-y, -x, -z'
  8  'y, x, z'
loop_
 _atom_site_type_symbol
 _atom_site_label
 _atom_site_symmetry_multiplicity
 _atom_site_fract_x
 _atom_site_fract_y
 _atom_site_fract_z
 _atom_site_occupancy
  Hf  Hf0  1  0.00000000  0.00000000  0.00000000  0.99
  W  W1  1  0.00000000  0.00000000  0.00000000  0.01
  W  W2  2  0.32671900  0.32671900  0.65343700  1.0
