# generated using pymatgen
data_HfMo2
_symmetry_space_group_name_H-M   Fmmm
_cell_length_a   2.89886702
_cell_length_b   2.89886702
_cell_length_c   6.97249282
_cell_angle_alpha   97.43966476
_cell_angle_beta   97.43966476
_cell_angle_gamma   112.15584084
_symmetry_Int_Tables_number   69
_chemical_formula_structural   HfMo2
_chemical_formula_sum   'Hf1 Mo2'
_cell_volume   52.78557503
_cell_formula_units_Z   1
loop_
 _symmetry_equiv_pos_site_id
 _symmetry_equiv_pos_as_xyz
  1  'x, y, z'
  2  '-x, -y, -z'
  3  '-x+z, -y+z, z'
  4  'x-z, y-z, -z'
  5  'y-z, x-z, -z'
  6  '-y+z, -x+z, z'
  7  '-y, -x, -z'
  8  'y, x, z'
loop_
 _atom_site_type_symbol
 _atom_site_label
 _atom_site_symmetry_multiplicity
 _atom_site_fract_x
 _atom_site_fract_y
 _atom_site_fract_z
 _atom_site_occupancy
  Hf  Hf0  1  0.00000000  0.00000000  0.00000000  1.0
  Mo  Mo1  2  0.32550700  0.32550700  0.65101400  1.0
