# generated using pymatgen
data_HfSb2
_symmetry_space_group_name_H-M   Pnnm
_cell_length_a   3.90256300
_cell_length_b   9.99321200
_cell_length_c   15.11902300
_cell_angle_alpha   90.00000000
_cell_angle_beta   90.00000000
_cell_angle_gamma   90.00000000
_symmetry_Int_Tables_number   58
_chemical_formula_structural   HfSb2
_chemical_formula_sum   'Hf8 Sb16'
_cell_volume   589.62888560
_cell_formula_units_Z   8
loop_
 _symmetry_equiv_pos_site_id
 _symmetry_equiv_pos_as_xyz
  1  'x, y, z'
  2  '-x, -y, -z'
  3  'x, -y, -z'
  4  '-x, y, z'
  5  '-x+1/2, y+1/2, -z+1/2'
  6  'x+1/2, -y+1/2, z+1/2'
  7  '-x+1/2, -y+1/2, z+1/2'
  8  'x+1/2, y+1/2, -z+1/2'
loop_
 _atom_site_type_symbol
 _atom_site_label
 _atom_site_symmetry_multiplicity
 _atom_site_fract_x
 _atom_site_fract_y
 _atom_site_fract_z
 _atom_site_occupancy
  Hf  Hf0  4  0.00000000  0.02155600  0.24825100  1.0
  Hf  Hf1  4  0.00000000  0.16650400  0.50665800  1.0
  Sb  Sb2  4  0.00000000  0.11909100  0.05726900  1.0
  Sb  Sb3  4  0.00000000  0.26752400  0.69795600  1.0
  Sb  Sb4  4  0.00000000  0.34049700  0.34479600  1.0
  Sb  Sb5  4  0.00000000  0.48732600  0.89531000  1.0
