# generated using pymatgen
data_HfSi2
_symmetry_space_group_name_H-M   Cmcm
_cell_length_a   3.65954400
_cell_length_b   3.69848600
_cell_length_c   7.49830741
_cell_angle_alpha   75.72232687
_cell_angle_beta   90.00000000
_cell_angle_gamma   90.00000000
_symmetry_Int_Tables_number   63
_chemical_formula_structural   HfSi2
_chemical_formula_sum   'Hf2 Si4'
_cell_volume   98.35311596
_cell_formula_units_Z   2
loop_
 _symmetry_equiv_pos_site_id
 _symmetry_equiv_pos_as_xyz
  1  'x, y, z'
  2  '-x, -y, -z'
  3  'x+1/2, -y, -z'
  4  '-x+1/2, y, z'
  5  '-x, y+z, -z'
  6  'x, -y-z, z'
  7  '-x+1/2, -y-z, z'
  8  'x+1/2, y+z, -z'
loop_
 _atom_site_type_symbol
 _atom_site_label
 _atom_site_symmetry_multiplicity
 _atom_site_fract_x
 _atom_site_fract_y
 _atom_site_fract_z
 _atom_site_occupancy
  Hf  Hf0  2  0.25000000  0.89522900  0.20954200  1.0
  Si  Si1  2  0.25000000  0.25031100  0.49937800  1.0
  Si  Si2  2  0.25000000  0.55454900  0.89090200  1.0
