# generated using pymatgen
data_HfZrNb2
_symmetry_space_group_name_H-M   Cmm2
_cell_length_a   3.01730681
_cell_length_b   3.01730681
_cell_length_c   9.74612300
_cell_angle_alpha   90.00000000
_cell_angle_beta   90.00000000
_cell_angle_gamma   112.25737384
_symmetry_Int_Tables_number   35
_chemical_formula_structural   HfZrNb2
_chemical_formula_sum   'Hf1 Zr1 Nb2'
_cell_volume   82.11895096
_cell_formula_units_Z   1
loop_
 _symmetry_equiv_pos_site_id
 _symmetry_equiv_pos_as_xyz
  1  'x, y, z'
  2  '-x, -y, z'
  3  '-y, -x, z'
  4  'y, x, z'
loop_
 _atom_site_type_symbol
 _atom_site_label
 _atom_site_symmetry_multiplicity
 _atom_site_fract_x
 _atom_site_fract_y
 _atom_site_fract_z
 _atom_site_occupancy
  Hf  Hf0  1  0.00000000  0.00000000  0.97991900  1.0
  Zr  Zr1  1  0.50000000  0.50000000  0.26724500  1.0
  Nb  Nb2  1  0.00000000  0.00000000  0.51530700  1.0
  Nb  Nb3  1  0.50000000  0.50000000  0.73752800  1.0
