# generated using pymatgen
data_Hf2Si4Ru3
_symmetry_space_group_name_H-M   C2/c
_cell_length_a   5.35755800
_cell_length_b   9.87355966
_cell_length_c   10.97477509
_cell_angle_alpha   79.19814162
_cell_angle_beta   75.87222796
_cell_angle_gamma   74.25786495
_symmetry_Int_Tables_number   15
_chemical_formula_structural   Hf2Si4Ru3
_chemical_formula_sum   'Hf8 Si16 Ru12'
_cell_volume   537.28300011
_cell_formula_units_Z   4
loop_
 _symmetry_equiv_pos_site_id
 _symmetry_equiv_pos_as_xyz
  1  'x, y, z'
  2  '-x, -y, -z'
  3  'x+y+z, -y+1/2, -z+1/2'
  4  '-x-y-z, y+1/2, z+1/2'
loop_
 _atom_site_type_symbol
 _atom_site_label
 _atom_site_symmetry_multiplicity
 _atom_site_fract_x
 _atom_site_fract_y
 _atom_site_fract_z
 _atom_site_occupancy
  Hf  Hf0  4  0.03770000  0.53035400  0.13784800  1.0
  Hf  Hf1  4  0.29798900  0.99872700  0.14822300  1.0
  Si  Si2  4  0.02900200  0.62065800  0.60573200  1.0
  Si  Si3  4  0.08601600  0.27722100  0.06440800  1.0
  Si  Si4  4  0.14261800  0.07354100  0.39549900  1.0
  Si  Si5  2  0.12730100  0.75000000  0.25000000  1.0
  Si  Si6  2  0.38141100  0.25000000  0.75000000  1.0
  Ru  Ru7  4  0.09176100  0.12669400  0.91571400  1.0
  Ru  Ru8  4  0.17434500  0.75633300  0.71969400  1.0
  Ru  Ru9  4  0.23339800  0.81271600  0.43259500  1.0
