# generated using pymatgen
data_Hg
_symmetry_space_group_name_H-M   I-42d
_cell_length_a   5.65825962
_cell_length_b   5.65825962
_cell_length_c   5.65825962
_cell_angle_alpha   72.47271719
_cell_angle_beta   69.54815315
_cell_angle_gamma   110.45184685
_symmetry_Int_Tables_number   122
_chemical_formula_structural   Hg
_chemical_formula_sum   Hg4
_cell_volume   139.33274480
_cell_formula_units_Z   4
loop_
 _symmetry_equiv_pos_site_id
 _symmetry_equiv_pos_as_xyz
  1  'x, y, z'
  2  'y+z, z, -x-z'
  3  '-x, -x-z, x-y'
  4  '-y-z, x-y, y'
  5  '-y-z+1/2, -y+1/4, -x+y+1/4'
  6  'x+1/2, -z+1/4, -y+1/4'
  7  'y+z+1/2, x+z+1/4, -z+1/4'
  8  '-x+1/2, -x+y+1/4, x+z+1/4'
loop_
 _atom_site_type_symbol
 _atom_site_label
 _atom_site_symmetry_multiplicity
 _atom_site_fract_x
 _atom_site_fract_y
 _atom_site_fract_z
 _atom_site_occupancy
  Hg  Hg0  4  0.04573300  0.12500000  0.32926700  1.0
