# generated using pymatgen
data_Hg
_symmetry_space_group_name_H-M   C2/m
_cell_length_a   3.56773665
_cell_length_b   3.56773665
_cell_length_c   8.65648837
_cell_angle_alpha   92.92123719
_cell_angle_beta   99.36260691
_cell_angle_gamma   118.79174256
_symmetry_Int_Tables_number   12
_chemical_formula_structural   Hg
_chemical_formula_sum   Hg3
_cell_volume   94.20673024
_cell_formula_units_Z   3
loop_
 _symmetry_equiv_pos_site_id
 _symmetry_equiv_pos_as_xyz
  1  'x, y, z'
  2  '-x, -y, -z'
  3  'y-z, x-z, -z'
  4  '-y+z, -x+z, z'
loop_
 _atom_site_type_symbol
 _atom_site_label
 _atom_site_symmetry_multiplicity
 _atom_site_fract_x
 _atom_site_fract_y
 _atom_site_fract_z
 _atom_site_occupancy
  Hg  Hg0  2  0.42847400  0.23521300  0.66368700  1.0
  Hg  Hg1  1  0.00000000  0.00000000  0.00000000  1.0
