# generated using pymatgen
data_Hg
_symmetry_space_group_name_H-M   Fmmm
_cell_length_a   3.49369269
_cell_length_b   3.49369269
_cell_length_c   6.31004883
_cell_angle_alpha   98.83136450
_cell_angle_beta   98.83136454
_cell_angle_gamma   116.45037993
_symmetry_Int_Tables_number   69
_chemical_formula_structural   Hg
_chemical_formula_sum   Hg2
_cell_volume   65.96147729
_cell_formula_units_Z   2
loop_
 _symmetry_equiv_pos_site_id
 _symmetry_equiv_pos_as_xyz
  1  'x, y, z'
  2  '-x, -y, -z'
  3  '-x+z, -y+z, z'
  4  'x-z, y-z, -z'
  5  'y-z, x-z, -z'
  6  '-y+z, -x+z, z'
  7  '-y, -x, -z'
  8  'y, x, z'
loop_
 _atom_site_type_symbol
 _atom_site_label
 _atom_site_symmetry_multiplicity
 _atom_site_fract_x
 _atom_site_fract_y
 _atom_site_fract_z
 _atom_site_occupancy
  Hg  Hg0  2  0.36598100  0.36598100  0.73196200  1.0
