# generated using pymatgen
data_KHg
_symmetry_space_group_name_H-M   P-1
_cell_length_a   6.72968600
_cell_length_b   7.11472273
_cell_length_c   7.24289677
_cell_angle_alpha   108.65198466
_cell_angle_beta   101.90786111
_cell_angle_gamma   90.36418910
_symmetry_Int_Tables_number   2
_chemical_formula_structural   KHg
_chemical_formula_sum   'K4 Hg4'
_cell_volume   320.52383977
_cell_formula_units_Z   4
loop_
 _symmetry_equiv_pos_site_id
 _symmetry_equiv_pos_as_xyz
  1  'x, y, z'
  2  '-x, -y, -z'
loop_
 _atom_site_type_symbol
 _atom_site_label
 _atom_site_symmetry_multiplicity
 _atom_site_fract_x
 _atom_site_fract_y
 _atom_site_fract_z
 _atom_site_occupancy
  K  K0  2  0.23900100  0.65286100  0.44293100  1.0
  K  K1  2  0.31729700  0.20358600  0.86133000  1.0
  Hg  Hg2  2  0.13976600  0.72288200  0.93704900  1.0
  Hg  Hg3  2  0.20350100  0.10418000  0.30398900  1.0
