# generated using pymatgen
data_Mg3Hg
_symmetry_space_group_name_H-M   R32
_cell_length_a   8.32392492
_cell_length_b   8.32392492
_cell_length_c   10.16151755
_cell_angle_alpha   65.82149681
_cell_angle_beta   65.82149681
_cell_angle_gamma   59.99999271
_symmetry_Int_Tables_number   155
_chemical_formula_structural   Mg3Hg
_chemical_formula_sum   'Mg18 Hg6'
_cell_volume   537.23859779
_cell_formula_units_Z   6
loop_
 _symmetry_equiv_pos_site_id
 _symmetry_equiv_pos_as_xyz
  1  'x, y, z'
  2  '-x-y-z, x, z'
  3  'y, -x-y-z, z'
  4  '-x, x+y+z, -z'
  5  'x+y+z, -y, -z'
  6  '-y, -x, -z'
loop_
 _atom_site_type_symbol
 _atom_site_label
 _atom_site_symmetry_multiplicity
 _atom_site_fract_x
 _atom_site_fract_y
 _atom_site_fract_z
 _atom_site_occupancy
  Mg  Mg0  6  0.03769000  0.77068200  0.67217000  1.0
  Mg  Mg1  6  0.08189800  0.32721100  0.83127500  1.0
  Mg  Mg2  2  0.13706000  0.13706000  0.58882000  1.0
  Mg  Mg3  2  0.31883500  0.31883500  0.04349500  1.0
  Mg  Mg4  2  0.44288100  0.44288100  0.67135700  1.0
  Hg  Hg5  3  0.00000000  0.67382000  0.00000000  1.0
  Hg  Hg6  3  0.18166400  0.50000000  0.50000000  1.0
