# generated using pymatgen
data_NaHg
_symmetry_space_group_name_H-M   Cmcm
_cell_length_a   5.39605100
_cell_length_b   6.54550797
_cell_length_c   6.54550797
_cell_angle_alpha   112.20913388
_cell_angle_beta   90.00000000
_cell_angle_gamma   90.00000000
_symmetry_Int_Tables_number   63
_chemical_formula_structural   NaHg
_chemical_formula_sum   'Na4 Hg4'
_cell_volume   214.03499369
_cell_formula_units_Z   4
loop_
 _symmetry_equiv_pos_site_id
 _symmetry_equiv_pos_as_xyz
  1  'x, y, z'
  2  '-x, -y, -z'
  3  'x+1/2, -y, -z'
  4  '-x+1/2, y, z'
  5  '-x, z, y'
  6  'x, -z, -y'
  7  '-x+1/2, -z, -y'
  8  'x+1/2, z, y'
loop_
 _atom_site_type_symbol
 _atom_site_label
 _atom_site_symmetry_multiplicity
 _atom_site_fract_x
 _atom_site_fract_y
 _atom_site_fract_z
 _atom_site_occupancy
  Na  Na0  2  0.25000000  0.17366300  0.82633700  1.0
  Na  Na1  2  0.25000000  0.62608500  0.37391500  1.0
  Hg  Hg2  4  0.25000000  0.11901600  0.30646100  1.0
