# generated using pymatgen
data_HgS
_symmetry_space_group_name_H-M   P3_121
_cell_length_a   4.43749200
_cell_length_b   4.43749217
_cell_length_c   9.75770000
_cell_angle_alpha   90.00000000
_cell_angle_beta   90.00000000
_cell_angle_gamma   119.99999872
_symmetry_Int_Tables_number   152
_chemical_formula_structural   HgS
_chemical_formula_sum   'Hg3 S3'
_cell_volume   166.39998460
_cell_formula_units_Z   3
loop_
 _symmetry_equiv_pos_site_id
 _symmetry_equiv_pos_as_xyz
  1  'x, y, z'
  2  '-y, x-y, z+1/3'
  3  '-x+y, -x, z+2/3'
  4  'y, x, -z+1/3'
  5  'x-y, -y, -z'
  6  '-x, -x+y, -z+2/3'
loop_
 _atom_site_type_symbol
 _atom_site_label
 _atom_site_symmetry_multiplicity
 _atom_site_fract_x
 _atom_site_fract_y
 _atom_site_fract_z
 _atom_site_occupancy
  Hg  Hg0  3  0.00000000  0.23929000  0.33333333  1.0
  S  S1  3  0.00000000  0.54510500  0.83333367  1.0
