# generated using pymatgen
data_KHg2
_symmetry_space_group_name_H-M   Imma
_cell_length_a   5.29878800
_cell_length_b   6.80163616
_cell_length_c   6.80163616
_cell_angle_alpha   74.52113560
_cell_angle_beta   67.07517511
_cell_angle_gamma   67.07517512
_symmetry_Int_Tables_number   74
_chemical_formula_structural   KHg2
_chemical_formula_sum   'K2 Hg4'
_cell_volume   206.01522022
_cell_formula_units_Z   2
loop_
 _symmetry_equiv_pos_site_id
 _symmetry_equiv_pos_as_xyz
  1  'x, y, z'
  2  '-x, -y, -z'
  3  '-x-y-z, z+1/2, y+1/2'
  4  'x+y+z, -z+1/2, -y+1/2'
  5  'x+y+z, -y, -z'
  6  '-x-y-z, y, z'
  7  '-x, -z+1/2, -y+1/2'
  8  'x, z+1/2, y+1/2'
loop_
 _atom_site_type_symbol
 _atom_site_label
 _atom_site_symmetry_multiplicity
 _atom_site_fract_x
 _atom_site_fract_y
 _atom_site_fract_z
 _atom_site_occupancy
  K  K0  2  0.04913800  0.20086200  0.70086200  1.0
  Hg  Hg1  4  0.33699000  0.21712700  0.10889300  1.0
