# generated using pymatgen
data_MgHg2
_symmetry_space_group_name_H-M   Cmcm
_cell_length_a   3.50417800
_cell_length_b   5.04632800
_cell_length_c   8.04030838
_cell_angle_alpha   90.00000000
_cell_angle_beta   102.58649230
_cell_angle_gamma   90.00000000
_symmetry_Int_Tables_number   63
_chemical_formula_structural   MgHg2
_chemical_formula_sum   'Mg2 Hg4'
_cell_volume   138.76182110
_cell_formula_units_Z   2
loop_
 _symmetry_equiv_pos_site_id
 _symmetry_equiv_pos_as_xyz
  1  'x, y, z'
  2  '-x, -y, -z'
  3  '-x, y+1/2, -z'
  4  'x, -y+1/2, z'
  5  'x-z, -y, -z'
  6  '-x+z, y, z'
  7  '-x+z, -y+1/2, z'
  8  'x-z, y+1/2, -z'
loop_
 _atom_site_type_symbol
 _atom_site_label
 _atom_site_symmetry_multiplicity
 _atom_site_fract_x
 _atom_site_fract_y
 _atom_site_fract_z
 _atom_site_occupancy
  Mg  Mg0  2  0.39153200  0.75000000  0.78306400  1.0
  Hg  Hg1  2  0.05708700  0.75000000  0.11417400  1.0
  Hg  Hg2  2  0.27216000  0.25000000  0.54432000  1.0
