# generated using pymatgen
data_Mg8Hg3.2
_symmetry_space_group_name_H-M   Pnma
_cell_length_a   4.68969900
_cell_length_b   6.17943000
_cell_length_c   8.97172500
_cell_angle_alpha   90.00000000
_cell_angle_beta   90.00000000
_cell_angle_gamma   90.00000000
_symmetry_Int_Tables_number   62
_chemical_formula_structural   Mg8Hg3.2
_chemical_formula_sum   'Mg8 Hg3.2'
_cell_volume   259.99760015
_cell_formula_units_Z   1
loop_
 _symmetry_equiv_pos_site_id
 _symmetry_equiv_pos_as_xyz
  1  'x, y, z'
  2  '-x, -y, -z'
  3  '-x, -y+1/2, z+1/2'
  4  'x, y+1/2, -z+1/2'
  5  '-x+1/2, y+1/2, -z+1/2'
  6  'x+1/2, -y+1/2, z+1/2'
  7  'x+1/2, -y, -z'
  8  '-x+1/2, y, z'
loop_
 _atom_site_type_symbol
 _atom_site_label
 _atom_site_symmetry_multiplicity
 _atom_site_fract_x
 _atom_site_fract_y
 _atom_site_fract_z
 _atom_site_occupancy
  Mg  Mg0  4  0.25000000  0.32052600  0.55610100  1.0
  Mg  Mg1  4  0.25000000  0.45009500  0.20941200  1.0
  Hg  Hg2  4  0.25000000  0.28605500  0.87947900  0.8
