# generated using pymatgen
data_MgHg2
_symmetry_space_group_name_H-M   C2/c
_cell_length_a   5.26135400
_cell_length_b   5.31998972
_cell_length_c   6.28114891
_cell_angle_alpha   73.70767117
_cell_angle_beta   65.23982604
_cell_angle_gamma   60.36393246
_symmetry_Int_Tables_number   15
_chemical_formula_structural   MgHg2
_chemical_formula_sum   'Mg2 Hg4'
_cell_volume   138.16238812
_cell_formula_units_Z   2
loop_
 _symmetry_equiv_pos_site_id
 _symmetry_equiv_pos_as_xyz
  1  'x, y, z'
  2  '-x, -y, -z'
  3  'x+y+z, -y+1/2, -z+1/2'
  4  '-x-y-z, y+1/2, z+1/2'
loop_
 _atom_site_type_symbol
 _atom_site_label
 _atom_site_symmetry_multiplicity
 _atom_site_fract_x
 _atom_site_fract_y
 _atom_site_fract_z
 _atom_site_occupancy
  Mg  Mg0  2  0.10451800  0.25000000  0.75000000  1.0
  Hg  Hg1  4  0.22755100  0.08783100  0.24726400  1.0
