# generated using pymatgen
data_MgHg3
_symmetry_space_group_name_H-M   Imm2
_cell_length_a   3.24956200
_cell_length_b   5.45753800
_cell_length_c   6.36904144
_cell_angle_alpha   115.36878730
_cell_angle_beta   104.77987846
_cell_angle_gamma   90.00000000
_symmetry_Int_Tables_number   44
_chemical_formula_structural   MgHg3
_chemical_formula_sum   'Mg1 Hg3'
_cell_volume   97.90817800
_cell_formula_units_Z   1
loop_
 _symmetry_equiv_pos_site_id
 _symmetry_equiv_pos_as_xyz
  1  'x, y, z'
  2  '-x+1/2, y-z+1/2, -z'
  3  '-x+z, y, z'
  4  'x-z+1/2, y-z+1/2, -z'
loop_
 _atom_site_type_symbol
 _atom_site_label
 _atom_site_symmetry_multiplicity
 _atom_site_fract_x
 _atom_site_fract_y
 _atom_site_fract_z
 _atom_site_occupancy
  Mg  Mg0  1  0.75000000  0.41364800  0.50000100  1.0
  Hg  Hg1  2  0.02750300  0.04730000  0.05500300  1.0
  Hg  Hg2  1  0.24999900  0.88009100  0.50000100  1.0
