# generated using pymatgen
data_K1.75Hg7
_symmetry_space_group_name_H-M   P-3m1
_cell_length_a   6.55712600
_cell_length_b   7.14331000
_cell_length_c   7.14331006
_cell_angle_alpha   60.00000029
_cell_angle_beta   90.00000000
_cell_angle_gamma   90.00000000
_symmetry_Int_Tables_number   164
_chemical_formula_structural   K1.75Hg7
_chemical_formula_sum   'K1.75 Hg7'
_cell_volume   289.76315460
_cell_formula_units_Z   1
loop_
 _symmetry_equiv_pos_site_id
 _symmetry_equiv_pos_as_xyz
  1  'x, y, z'
  2  '-x, -y, -z'
  3  'x, z, -y-z'
  4  '-x, -z, y+z'
  5  'x, -y-z, y'
  6  '-x, y+z, -y'
  7  '-x, -z, -y'
  8  'x, z, y'
  9  '-x, y+z, -z'
  10  'x, -y-z, z'
  11  '-x, -y, y+z'
  12  'x, y, -y-z'
loop_
 _atom_site_type_symbol
 _atom_site_label
 _atom_site_symmetry_multiplicity
 _atom_site_fract_x
 _atom_site_fract_y
 _atom_site_fract_z
 _atom_site_occupancy
  K  K0  2  0.15886200  0.33333333  0.33333333  0.875
  Hg  Hg1  6  0.33250600  0.36409900  0.81795000  1.0
  Hg  Hg2  1  0.00000000  0.00000000  0.00000000  1.0
