# generated using pymatgen
data_KHg8
_symmetry_space_group_name_H-M   Pnma
_cell_length_a   5.71997300
_cell_length_b   10.95115400
_cell_length_c   14.06264500
_cell_angle_alpha   90.00000000
_cell_angle_beta   90.00000000
_cell_angle_gamma   90.00000000
_symmetry_Int_Tables_number   62
_chemical_formula_structural   KHg8
_chemical_formula_sum   'K3 Hg24'
_cell_volume   880.88837470
_cell_formula_units_Z   3
loop_
 _symmetry_equiv_pos_site_id
 _symmetry_equiv_pos_as_xyz
  1  'x, y, z'
  2  '-x, -y, -z'
  3  '-x, y+1/2, -z+1/2'
  4  'x, -y+1/2, z+1/2'
  5  '-x+1/2, -y+1/2, z+1/2'
  6  'x+1/2, y+1/2, -z+1/2'
  7  'x+1/2, -y, -z'
  8  '-x+1/2, y, z'
loop_
 _atom_site_type_symbol
 _atom_site_label
 _atom_site_symmetry_multiplicity
 _atom_site_fract_x
 _atom_site_fract_y
 _atom_site_fract_z
 _atom_site_occupancy
  K  K0  4  0.25000000  0.12936500  0.81832500  0.75
  Hg  Hg1  4  0.25000000  0.09745200  0.13573900  1.0
  Hg  Hg2  4  0.25000000  0.14508000  0.54417200  1.0
  Hg  Hg3  4  0.25000000  0.50222100  0.84830100  1.0
  Hg  Hg4  4  0.25000000  0.62322800  0.50717700  1.0
  Hg  Hg5  4  0.25000000  0.63003100  0.09746600  1.0
  Hg  Hg6  4  0.25000000  0.72412400  0.30540300  1.0
