# generated using pymatgen
data_Ho
_symmetry_space_group_name_H-M   R-3m
_cell_length_a   3.54503461
_cell_length_b   3.54503461
_cell_length_c   8.79805372
_cell_angle_alpha   78.37725281
_cell_angle_beta   78.37725281
_cell_angle_gamma   59.99998867
_symmetry_Int_Tables_number   166
_chemical_formula_structural   Ho
_chemical_formula_sum   Ho3
_cell_volume   93.12719402
_cell_formula_units_Z   3
loop_
 _symmetry_equiv_pos_site_id
 _symmetry_equiv_pos_as_xyz
  1  'x, y, z'
  2  '-x, -y, -z'
  3  '-x-y-z, x, z'
  4  'x+y+z, -x, -z'
  5  'y, -x-y-z, z'
  6  '-y, x+y+z, -z'
  7  '-x, x+y+z, -z'
  8  'x, -x-y-z, z'
  9  'x+y+z, -y, -z'
  10  '-x-y-z, y, z'
  11  '-y, -x, -z'
  12  'y, x, z'
loop_
 _atom_site_type_symbol
 _atom_site_label
 _atom_site_symmetry_multiplicity
 _atom_site_fract_x
 _atom_site_fract_y
 _atom_site_fract_z
 _atom_site_occupancy
  Ho  Ho0  2  0.22205900  0.22205900  0.33382300  1.0
  Ho  Ho1  1  0.00000000  0.00000000  0.00000000  1.0
