# generated using pymatgen
data_Ho2Sn5Rh3
_symmetry_space_group_name_H-M   Cmc2_1
_cell_length_a   4.39149600
_cell_length_b   7.34041500
_cell_length_c   13.46326204
_cell_angle_alpha   90.00000000
_cell_angle_beta   99.38640271
_cell_angle_gamma   90.00000000
_symmetry_Int_Tables_number   36
_chemical_formula_structural   Ho2Sn5Rh3
_chemical_formula_sum   'Ho4 Sn10 Rh6'
_cell_volume   428.18289164
_cell_formula_units_Z   2
loop_
 _symmetry_equiv_pos_site_id
 _symmetry_equiv_pos_as_xyz
  1  'x, y, z'
  2  '-x, y+1/2, -z'
  3  '-x+z, y, z'
  4  'x-z, y+1/2, -z'
loop_
 _atom_site_type_symbol
 _atom_site_label
 _atom_site_symmetry_multiplicity
 _atom_site_fract_x
 _atom_site_fract_y
 _atom_site_fract_z
 _atom_site_occupancy
  Ho  Ho0  2  0.17263800  0.74455400  0.34527600  1.0
  Ho  Ho1  2  0.47593600  0.76384300  0.95187200  1.0
  Sn  Sn2  2  0.04758900  0.60232600  0.09517800  1.0
  Sn  Sn3  2  0.11941100  0.26898900  0.23882200  1.0
  Sn  Sn4  2  0.29052500  0.52197000  0.58105000  1.0
  Sn  Sn5  2  0.29533300  0.95030700  0.59066600  1.0
  Sn  Sn6  2  0.40363400  0.38588900  0.80726800  1.0
  Rh  Rh7  2  0.05015000  0.98125400  0.10030000  1.0
  Rh  Rh8  2  0.22338200  0.23479400  0.44676400  1.0
  Rh  Rh9  2  0.39401500  0.01807400  0.78803000  1.0
