# generated using pymatgen
data_Ho2Si5Rh3
_symmetry_space_group_name_H-M   Ibam
_cell_length_a   5.74553800
_cell_length_b   8.15180959
_cell_length_c   8.15180959
_cell_angle_alpha   74.99638086
_cell_angle_beta   69.36528423
_cell_angle_gamma   69.36528423
_symmetry_Int_Tables_number   72
_chemical_formula_structural   Ho2Si5Rh3
_chemical_formula_sum   'Ho4 Si10 Rh6'
_cell_volume   330.40784393
_cell_formula_units_Z   2
loop_
 _symmetry_equiv_pos_site_id
 _symmetry_equiv_pos_as_xyz
  1  'x, y, z'
  2  '-x, -y, -z'
  3  'x+y+z, -y, -z'
  4  '-x-y-z, y, z'
  5  '-x+1/2, -z, -y'
  6  'x+1/2, z, y'
  7  '-x-y-z+1/2, z, y'
  8  'x+y+z+1/2, -z, -y'
loop_
 _atom_site_type_symbol
 _atom_site_label
 _atom_site_symmetry_multiplicity
 _atom_site_fract_x
 _atom_site_fract_y
 _atom_site_fract_z
 _atom_site_occupancy
  Ho  Ho0  4  0.13129400  0.10070800  0.63670500  1.0
  Si  Si1  4  0.02676200  0.72323800  0.72323800  1.0
  Si  Si2  4  0.10636600  0.54937300  0.23789600  1.0
  Si  Si3  2  0.25000000  0.00000000  0.00000000  1.0
  Rh  Rh4  4  0.13942600  0.75031800  0.97082900  1.0
  Rh  Rh5  2  0.25000000  0.50000000  0.50000000  1.0
