# generated using pymatgen
data_Ho3Ni
_symmetry_space_group_name_H-M   Pnma
_cell_length_a   6.26292200
_cell_length_b   6.80670300
_cell_length_c   9.53490100
_cell_angle_alpha   90.00000000
_cell_angle_beta   90.00000000
_cell_angle_gamma   90.00000000
_symmetry_Int_Tables_number   62
_chemical_formula_structural   Ho3Ni
_chemical_formula_sum   'Ho12 Ni4'
_cell_volume   406.47139907
_cell_formula_units_Z   4
loop_
 _symmetry_equiv_pos_site_id
 _symmetry_equiv_pos_as_xyz
  1  'x, y, z'
  2  '-x, -y, -z'
  3  'x+1/2, -y+1/2, -z'
  4  '-x+1/2, y+1/2, z'
  5  '-x+1/2, y+1/2, -z+1/2'
  6  'x+1/2, -y+1/2, z+1/2'
  7  '-x, -y, z+1/2'
  8  'x, y, -z+1/2'
loop_
 _atom_site_type_symbol
 _atom_site_label
 _atom_site_symmetry_multiplicity
 _atom_site_fract_x
 _atom_site_fract_y
 _atom_site_fract_z
 _atom_site_occupancy
  Ho  Ho0  8  0.17896800  0.17836100  0.06639500  1.0
  Ho  Ho1  4  0.14073900  0.46627700  0.75000000  1.0
  Ni  Ni2  4  0.05401500  0.89058900  0.25000000  1.0
