# generated using pymatgen
data_Ho5(Si5Ir2)2
_symmetry_space_group_name_H-M   P4/mbm
_cell_length_a   4.26012800
_cell_length_b   12.61772300
_cell_length_c   12.61772300
_cell_angle_alpha   90.00000000
_cell_angle_beta   90.00000000
_cell_angle_gamma   90.00000000
_symmetry_Int_Tables_number   127
_chemical_formula_structural   Ho5(Si5Ir2)2
_chemical_formula_sum   'Ho10 Si20 Ir8'
_cell_volume   678.24191607
_cell_formula_units_Z   2
loop_
 _symmetry_equiv_pos_site_id
 _symmetry_equiv_pos_as_xyz
  1  'x, y, z'
  2  '-x, -y, -z'
  3  'x, -z, y'
  4  '-x, z, -y'
  5  'x, -y, -z'
  6  '-x, y, z'
  7  'x, z, -y'
  8  '-x, -z, y'
  9  '-x, y+1/2, -z+1/2'
  10  'x, -y+1/2, z+1/2'
  11  '-x, -z+1/2, -y+1/2'
  12  'x, z+1/2, y+1/2'
  13  '-x, -y+1/2, z+1/2'
  14  'x, y+1/2, -z+1/2'
  15  '-x, z+1/2, y+1/2'
  16  'x, -z+1/2, -y+1/2'
loop_
 _atom_site_type_symbol
 _atom_site_label
 _atom_site_symmetry_multiplicity
 _atom_site_fract_x
 _atom_site_fract_y
 _atom_site_fract_z
 _atom_site_occupancy
  Ho  Ho0  4  0.50000000  0.11609800  0.61609800  1.0
  Ho  Ho1  4  0.50000000  0.17552200  0.32447800  1.0
  Ho  Ho2  2  0.00000000  0.00000000  0.00000000  1.0
  Si  Si3  8  0.00000000  0.16380300  0.79929800  1.0
  Si  Si4  8  0.50000000  0.00349300  0.15651200  1.0
  Si  Si5  4  0.00000000  0.06568300  0.43431700  1.0
  Ir  Ir6  8  0.00000000  0.02044900  0.24570200  1.0
