# generated using pymatgen
data_I
_symmetry_space_group_name_H-M   Cmce
_cell_length_a   4.60333200
_cell_length_b   5.11727078
_cell_length_c   9.83247900
_cell_angle_alpha   90.00000000
_cell_angle_beta   90.00000000
_cell_angle_gamma   116.72981996
_symmetry_Int_Tables_number   64
_chemical_formula_structural   I
_chemical_formula_sum   I4
_cell_volume   206.86737688
_cell_formula_units_Z   4
loop_
 _symmetry_equiv_pos_site_id
 _symmetry_equiv_pos_as_xyz
  1  'x, y, z'
  2  '-x, -y, -z'
  3  '-x+1/2, -y, z+1/2'
  4  'x+1/2, y, -z+1/2'
  5  '-x+y, y, -z'
  6  'x-y, -y, z'
  7  'x-y+1/2, -y, -z+1/2'
  8  '-x+y+1/2, y, z+1/2'
loop_
 _atom_site_type_symbol
 _atom_site_label
 _atom_site_symmetry_multiplicity
 _atom_site_fract_x
 _atom_site_fract_y
 _atom_site_fract_z
 _atom_site_occupancy
  I  I0  4  0.15886700  0.00000000  0.37755700  1.0
