# generated using pymatgen
data_In3Sn
_symmetry_space_group_name_H-M   C2/m
_cell_length_a   3.27047000
_cell_length_b   3.27047000
_cell_length_c   11.02633859
_cell_angle_alpha   95.60838070
_cell_angle_beta   95.58660041
_cell_angle_gamma   110.01678916
_symmetry_Int_Tables_number   12
_chemical_formula_structural   In3Sn
_chemical_formula_sum   'In3 Sn1'
_cell_volume   109.19839293
_cell_formula_units_Z   1
loop_
 _symmetry_equiv_pos_site_id
 _symmetry_equiv_pos_as_xyz
  1  'x, y, z'
  2  '-x, -y, -z'
  3  'y-z, x-z, -z'
  4  '-y+z, -x+z, z'
loop_
 _atom_site_type_symbol
 _atom_site_label
 _atom_site_symmetry_multiplicity
 _atom_site_fract_x
 _atom_site_fract_y
 _atom_site_fract_z
 _atom_site_occupancy
  In  In0  2  0.49836000  0.24991900  0.74827900  1.0
  In  In1  1  0.00000000  0.50000000  0.50000000  1.0
  Sn  Sn2  1  0.00000000  0.00000000  0.00000000  1.0
