# generated using pymatgen
data_In1.35Sn1.65Te3
_symmetry_space_group_name_H-M   P-3m1
_cell_length_a   4.46866400
_cell_length_b   4.46866353
_cell_length_c   11.14024400
_cell_angle_alpha   90.00000000
_cell_angle_beta   90.00000000
_cell_angle_gamma   120.00000350
_symmetry_Int_Tables_number   164
_chemical_formula_structural   In1.35Sn1.65Te3
_chemical_formula_sum   'In1.35 Sn1.65 Te3'
_cell_volume   192.65517361
_cell_formula_units_Z   1
loop_
 _symmetry_equiv_pos_site_id
 _symmetry_equiv_pos_as_xyz
  1  'x, y, z'
  2  '-x, -y, -z'
  3  '-y, x-y, z'
  4  'y, -x+y, -z'
  5  '-x+y, -x, z'
  6  'x-y, x, -z'
  7  'y, x, -z'
  8  '-y, -x, z'
  9  'x-y, -y, -z'
  10  '-x+y, y, z'
  11  '-x, -x+y, -z'
  12  'x, x-y, z'
loop_
 _atom_site_type_symbol
 _atom_site_label
 _atom_site_symmetry_multiplicity
 _atom_site_fract_x
 _atom_site_fract_y
 _atom_site_fract_z
 _atom_site_occupancy
  In  In0  1  0.00000000  0.00000000  0.00000000  1.0
  Sn  Sn1  2  0.33333333  0.66666667  0.66829100  0.825
  In  In2  2  0.33333333  0.66666667  0.66829100  0.175
  Te  Te3  2  0.33333333  0.66666667  0.16713600  1.0
  Te  Te4  1  0.00000000  0.00000000  0.50000000  1.0
