# generated using pymatgen
data_InPb
_symmetry_space_group_name_H-M   Cm
_cell_length_a   3.42521400
_cell_length_b   3.43365918
_cell_length_c   5.95419552
_cell_angle_alpha   96.87300065
_cell_angle_beta   90.00000000
_cell_angle_gamma   119.91867275
_symmetry_Int_Tables_number   8
_chemical_formula_structural   InPb
_chemical_formula_sum   'In1 Pb1'
_cell_volume   60.11384393
_cell_formula_units_Z   1
loop_
 _symmetry_equiv_pos_site_id
 _symmetry_equiv_pos_as_xyz
  1  'x, y, z'
  2  '-x+y, y, z'
loop_
 _atom_site_type_symbol
 _atom_site_label
 _atom_site_symmetry_multiplicity
 _atom_site_fract_x
 _atom_site_fract_y
 _atom_site_fract_z
 _atom_site_occupancy
  In  In0  1  0.33202400  0.66404800  0.24841200  1.0
  Pb  Pb1  1  0.66798400  0.33596800  0.75158700  1.0
