# generated using pymatgen
data_Y2(InPb)3
_symmetry_space_group_name_H-M   Pmmm
_cell_length_a   4.80200200
_cell_length_b   4.81311200
_cell_length_c   9.51312100
_cell_angle_alpha   90.00000000
_cell_angle_beta   90.00000000
_cell_angle_gamma   90.00000000
_symmetry_Int_Tables_number   47
_chemical_formula_structural   Y2(InPb)3
_chemical_formula_sum   'Y2 In3 Pb3'
_cell_volume   219.87270785
_cell_formula_units_Z   1
loop_
 _symmetry_equiv_pos_site_id
 _symmetry_equiv_pos_as_xyz
  1  'x, y, z'
  2  '-x, -y, -z'
  3  '-x, -y, z'
  4  'x, y, -z'
  5  'x, -y, -z'
  6  '-x, y, z'
  7  '-x, y, -z'
  8  'x, -y, z'
loop_
 _atom_site_type_symbol
 _atom_site_label
 _atom_site_symmetry_multiplicity
 _atom_site_fract_x
 _atom_site_fract_y
 _atom_site_fract_z
 _atom_site_occupancy
  Y  Y0  2  0.00000000  0.00000000  0.24930700  1.0
  In  In1  2  0.50000000  0.50000000  0.25257300  1.0
  In  In2  1  0.00000000  0.50000000  0.50000000  1.0
  Pb  Pb3  1  0.00000000  0.50000000  0.00000000  1.0
  Pb  Pb4  1  0.50000000  0.00000000  0.00000000  1.0
  Pb  Pb5  1  0.50000000  0.00000000  0.50000000  1.0
