# generated using pymatgen
data_Mg2In
_symmetry_space_group_name_H-M   Cmcm
_cell_length_a   3.51446600
_cell_length_b   5.01695300
_cell_length_c   8.10236357
_cell_angle_alpha   90.00000000
_cell_angle_beta   102.52579105
_cell_angle_gamma   90.00000000
_symmetry_Int_Tables_number   63
_chemical_formula_structural   Mg2In
_chemical_formula_sum   'Mg4 In2'
_cell_volume   139.45986257
_cell_formula_units_Z   2
loop_
 _symmetry_equiv_pos_site_id
 _symmetry_equiv_pos_as_xyz
  1  'x, y, z'
  2  '-x, -y, -z'
  3  '-x, y+1/2, -z'
  4  'x, -y+1/2, z'
  5  'x-z, -y, -z'
  6  '-x+z, y, z'
  7  '-x+z, -y+1/2, z'
  8  'x-z, y+1/2, -z'
loop_
 _atom_site_type_symbol
 _atom_site_label
 _atom_site_symmetry_multiplicity
 _atom_site_fract_x
 _atom_site_fract_y
 _atom_site_fract_z
 _atom_site_occupancy
  Mg  Mg0  2  0.22561700  0.25000000  0.45123400  1.0
  Mg  Mg1  2  0.44149000  0.75000000  0.88298000  1.0
  In  In2  2  0.11010400  0.75000000  0.22020800  1.0
