# generated using pymatgen
data_InSb
_symmetry_space_group_name_H-M   Cmcm
_cell_length_a   4.34496861
_cell_length_b   4.34496861
_cell_length_c   6.12689400
_cell_angle_alpha   90.00000000
_cell_angle_beta   90.00000000
_cell_angle_gamma   89.66322076
_symmetry_Int_Tables_number   63
_chemical_formula_structural   InSb
_chemical_formula_sum   'In2 Sb2'
_cell_volume   115.66611557
_cell_formula_units_Z   2
loop_
 _symmetry_equiv_pos_site_id
 _symmetry_equiv_pos_as_xyz
  1  'x, y, z'
  2  '-x, -y, -z'
  3  '-x, -y, z+1/2'
  4  'x, y, -z+1/2'
  5  '-y, -x, -z'
  6  'y, x, z'
  7  'y, x, -z+1/2'
  8  '-y, -x, z+1/2'
loop_
 _atom_site_type_symbol
 _atom_site_label
 _atom_site_symmetry_multiplicity
 _atom_site_fract_x
 _atom_site_fract_y
 _atom_site_fract_z
 _atom_site_occupancy
  In  In0  2  0.27941100  0.27941100  0.25000000  1.0
  Sb  Sb1  2  0.22279500  0.22279500  0.75000000  1.0
