# generated using pymatgen
data_InSb
_symmetry_space_group_name_H-M   Imm2
_cell_length_a   3.16079200
_cell_length_b   4.53268222
_cell_length_c   4.53268222
_cell_angle_alpha   80.42927674
_cell_angle_beta   69.59420506
_cell_angle_gamma   69.59420506
_symmetry_Int_Tables_number   44
_chemical_formula_structural   InSb
_chemical_formula_sum   'In1 Sb1'
_cell_volume   56.97068110
_cell_formula_units_Z   1
loop_
 _symmetry_equiv_pos_site_id
 _symmetry_equiv_pos_as_xyz
  1  'x, y, z'
  2  'x+y+z, -y, -z'
  3  'x, z, y'
  4  'x+y+z, -z, -y'
loop_
 _atom_site_type_symbol
 _atom_site_label
 _atom_site_symmetry_multiplicity
 _atom_site_fract_x
 _atom_site_fract_y
 _atom_site_fract_z
 _atom_site_occupancy
  In  In0  1  0.40233900  0.50000000  0.50000000  1.0
  Sb  Sb1  1  0.84848700  0.00000000  0.00000000  1.0
