# generated using pymatgen
data_V6InS8
_symmetry_space_group_name_H-M   P3
_cell_length_a   3.23650000
_cell_length_b   9.18630600
_cell_length_c   9.18630569
_cell_angle_alpha   120.00000113
_cell_angle_beta   90.00000000
_cell_angle_gamma   90.00000000
_symmetry_Int_Tables_number   143
_chemical_formula_structural   V6InS8
_chemical_formula_sum   'V6 In1 S8'
_cell_volume   236.53098436
_cell_formula_units_Z   1
loop_
 _symmetry_equiv_pos_site_id
 _symmetry_equiv_pos_as_xyz
  1  'x, y, z'
  2  'x, -z, y-z'
  3  'x, -y+z, -y'
loop_
 _atom_site_type_symbol
 _atom_site_label
 _atom_site_symmetry_multiplicity
 _atom_site_fract_x
 _atom_site_fract_y
 _atom_site_fract_z
 _atom_site_occupancy
  V  V0  3  0.24056600  0.21608900  0.04064700  1.0
  V  V1  3  0.73949200  0.45053200  0.29395000  1.0
  In  In2  1  0.63124300  0.33333333  0.66666667  1.0
  S  S3  3  0.23838400  0.03831300  0.71770300  1.0
  S  S4  3  0.74140800  0.38362800  0.01357900  1.0
  S  S5  1  0.23966600  0.66666667  0.33333333  1.0
  S  S6  1  0.74054600  0.00000000  0.00000000  1.0
