# generated using pymatgen
data_InTe
_symmetry_space_group_name_H-M   I4/mcm
_cell_length_a   7.09032242
_cell_length_b   7.09032242
_cell_length_c   7.09032242
_cell_angle_alpha   105.05291148
_cell_angle_beta   105.05291148
_cell_angle_gamma   118.72316579
_symmetry_Int_Tables_number   140
_chemical_formula_structural   InTe
_chemical_formula_sum   'In4 Te4'
_cell_volume   268.95176842
_cell_formula_units_Z   4
loop_
 _symmetry_equiv_pos_site_id
 _symmetry_equiv_pos_as_xyz
  1  'x, y, z'
  2  '-x, -y, -z'
  3  'x-z, x, x-y'
  4  '-x+z, -x, -x+y'
  5  'y-z, x-z, -z'
  6  '-y+z, -x+z, z'
  7  'y, y-z, -x+y'
  8  '-y, -y+z, x-y'
  9  '-y+z+1/2, -y+1/2, x-y'
  10  'y-z+1/2, y+1/2, -x+y'
  11  '-y+1/2, -x+1/2, -z'
  12  'y+1/2, x+1/2, z'
  13  '-x+1/2, -x+z+1/2, -x+y'
  14  'x+1/2, x-z+1/2, x-y'
  15  '-x+z+1/2, -y+z+1/2, z'
  16  'x-z+1/2, y-z+1/2, -z'
loop_
 _atom_site_type_symbol
 _atom_site_label
 _atom_site_symmetry_multiplicity
 _atom_site_fract_x
 _atom_site_fract_y
 _atom_site_fract_z
 _atom_site_occupancy
  In  In0  2  0.25000000  0.25000000  0.00000000  1.0
  In  In1  2  0.25000000  0.75000000  0.50000000  1.0
  Te  Te2  4  0.18204200  0.68204200  0.86408400  1.0
