# generated using pymatgen
data_In2Mo15Se19
_symmetry_space_group_name_H-M   R-3c
_cell_length_a   9.79213795
_cell_length_b   9.79213795
_cell_length_c   20.38791292
_cell_angle_alpha   76.10486419
_cell_angle_beta   76.10486419
_cell_angle_gamma   60.00000037
_symmetry_Int_Tables_number   167
_chemical_formula_structural   In2Mo15Se19
_chemical_formula_sum   'In4 Mo30 Se38'
_cell_volume   1626.61366675
_cell_formula_units_Z   2
loop_
 _symmetry_equiv_pos_site_id
 _symmetry_equiv_pos_as_xyz
  1  'x, y, z'
  2  '-x, -y, -z'
  3  '-x-y-z, x, z'
  4  'x+y+z, -x, -z'
  5  'y, -x-y-z, z'
  6  '-y, x+y+z, -z'
  7  '-x+1/2, x+y+z+1/2, -z+1/2'
  8  'x+1/2, -x-y-z+1/2, z+1/2'
  9  'x+y+z+1/2, -y+1/2, -z+1/2'
  10  '-x-y-z+1/2, y+1/2, z+1/2'
  11  '-y+1/2, -x+1/2, -z+1/2'
  12  'y+1/2, x+1/2, z+1/2'
loop_
 _atom_site_type_symbol
 _atom_site_label
 _atom_site_symmetry_multiplicity
 _atom_site_fract_x
 _atom_site_fract_y
 _atom_site_fract_z
 _atom_site_occupancy
  In  In0  4  0.11369500  0.11369500  0.65891500  1.0
  Mo  Mo1  12  0.00234000  0.12650300  0.05890500  1.0
  Mo  Mo2  12  0.04765800  0.36114900  0.36706700  1.0
  Mo  Mo3  6  0.09092600  0.25000000  0.25000000  1.0
  Se  Se4  12  0.03823600  0.68420000  0.85672400  1.0
  Se  Se5  12  0.05650200  0.30256900  0.95098400  1.0
  Se  Se6  6  0.05834600  0.44165400  0.75000000  1.0
  Se  Se7  4  0.05440500  0.05440500  0.83678500  1.0
  Se  Se8  4  0.17629600  0.17629600  0.47111200  1.0
