# generated using pymatgen
data_In2O3
_symmetry_space_group_name_H-M   P1
_cell_length_a   11.36463494
_cell_length_b   11.83071667
_cell_length_c   11.37804769
_cell_angle_alpha   89.77572221
_cell_angle_beta   86.85942593
_cell_angle_gamma   93.81931347
_symmetry_Int_Tables_number   1
_chemical_formula_structural   In2O3
_chemical_formula_sum   'In40 O60'
_cell_volume   1524.06475795
_cell_formula_units_Z   20
loop_
 _symmetry_equiv_pos_site_id
 _symmetry_equiv_pos_as_xyz
  1  'x, y, z'
loop_
 _atom_site_type_symbol
 _atom_site_label
 _atom_site_symmetry_multiplicity
 _atom_site_fract_x
 _atom_site_fract_y
 _atom_site_fract_z
 _atom_site_occupancy
  In  In0  1  0.00156660  0.52912857  0.86063522  1.0
  In  In1  1  0.00667777  0.21477073  0.02349274  1.0
  In  In2  1  0.00821420  0.34177230  0.61839466  1.0
  In  In3  1  0.06840710  0.06443233  0.72211319  1.0
  In  In4  1  0.09056069  0.28101525  0.35113906  1.0
  In  In5  1  0.09213459  0.00209830  0.19251063  1.0
  In  In6  1  0.11676943  0.48241411  0.11815692  1.0
  In  In7  1  0.14125594  0.75684804  0.95894709  1.0
  In  In8  1  0.16767500  0.91730620  0.52093221  1.0
  In  In9  1  0.18769822  0.59669998  0.57859410  1.0
  In  In10  1  0.18818616  0.74719526  0.28007867  1.0
  In  In11  1  0.20606794  0.28956442  0.81520824  1.0
  In  In12  1  0.30213564  0.24871281  0.12815061  1.0
  In  In13  1  0.31027301  0.20145283  0.54740904  1.0
  In  In14  1  0.31460279  0.45141573  0.37650620  1.0
  In  In15  1  0.32845345  0.01887020  0.93586412  1.0
  In  In16  1  0.36393782  0.01260289  0.29802220  1.0
  In  In17  1  0.36424348  0.52583425  0.92969420  1.0
  In  In18  1  0.38368153  0.78781650  0.72591610  1.0
  In  In19  1  0.42977836  0.74833527  0.43574689  1.0
  In  In20  1  0.45577116  0.49679927  0.65864997  1.0
  In  In21  1  0.49081329  0.22590150  0.80848990  1.0
  In  In22  1  0.52267684  0.04056397  0.59201041  1.0
  In  In23  1  0.53981204  0.82899631  0.17099531  1.0
  In  In24  1  0.54643020  0.10525266  0.10505461  1.0
  In  In25  1  0.57711983  0.53588064  0.17195273  1.0
  In  In26  1  0.58948072  0.29497628  0.32163886  1.0
  In  In27  1  0.59871687  0.92385214  0.90325050  1.0
  In  In28  1  0.63477817  0.57057866  0.44122441  1.0
  In  In29  1  0.68721209  0.83876391  0.66417081  1.0
  In  In30  1  0.75167579  0.41752585  0.71560438  1.0
  In  In31  1  0.75269492  0.23728015  0.48718347  1.0
  In  In32  1  0.77988157  0.70326448  0.95638915  1.0
  In  In33  1  0.78414268  0.39743220  0.02765407  1.0
  In  In34  1  0.79188977  0.15743638  0.83393852  1.0
  In  In35  1  0.83327520  0.97903391  0.12246617  1.0
  In  In36  1  0.87224037  0.98031012  0.46438881  1.0
  In  In37  1  0.88036655  0.66527924  0.20011636  1.0
  In  In38  1  0.94476751  0.51211729  0.42657339  1.0
  In  In39  1  0.95403302  0.75060255  0.67217626  1.0
  O  O40  1  0.02738822  0.67559470  0.50378790  1.0
  O  O41  1  0.03136722  0.05064282  0.52970874  1.0
  O  O42  1  0.03382149  0.58976649  0.24968260  1.0
  O  O43  1  0.06171667  0.77590495  0.42828952  1.0
  O  O44  1  0.07054761  0.18909994  0.20101450  1.0
  O  O45  1  0.08148917  0.89116037  0.69384128  1.0
  O  O46  1  0.08781733  0.64869797  0.73348620  1.0
  O  O47  1  0.09419251  0.41216251  0.76506937  1.0
  O  O48  1  0.10583153  0.44164912  0.46919560  1.0
  O  O49  1  0.12681720  0.82160973  0.13127557  1.0
  O  O50  1  0.15169596  0.22769177  0.63923974  1.0
  O  O51  1  0.18546346  0.94148907  0.33614931  1.0
  O  O52  1  0.18550257  0.30629531  0.00033996  1.0
  O  O53  1  0.20152387  0.58891140  0.98985499  1.0
  O  O54  1  0.21972051  0.39409708  0.22563868  1.0
  O  O55  1  0.23268098  0.11059490  0.81680523  1.0
  O  O56  1  0.26916821  0.26467918  0.38959200  1.0
  O  O57  1  0.27125052  0.06413896  0.13368404  1.0
  O  O58  1  0.27523796  0.62672206  0.38361290  1.0
  O  O59  1  0.27590363  0.85201812  0.86871663  1.0
  O  O60  1  0.28347854  0.77327340  0.57238259  1.0
  O  O61  1  0.30939355  0.46237674  0.56413259  1.0
  O  O62  1  0.34310601  0.03097758  0.49695137  1.0
  O  O63  1  0.37268558  0.61134128  0.77284639  1.0
  O  O64  1  0.37440621  0.82313410  0.27829429  1.0
  O  O65  1  0.38629135  0.37585239  0.80563254  1.0
  O  O66  1  0.43204778  0.18826772  0.98765463  1.0
  O  O67  1  0.43264846  0.48362123  0.08039298  1.0
  O  O68  1  0.45016281  0.19839144  0.23910203  1.0
  O  O69  1  0.46101971  0.94761719  0.03388819  1.0
  O  O70  1  0.47974571  0.21472539  0.61263678  1.0
  O  O71  1  0.48483849  0.04100739  0.78779819  1.0
  O  O72  1  0.50745121  0.45401527  0.34861059  1.0
  O  O73  1  0.51641338  0.64644177  0.55098876  1.0
  O  O74  1  0.52678046  0.86972963  0.55955322  1.0
  O  O75  1  0.55105206  0.79396446  0.78667293  1.0
  O  O76  1  0.55202369  0.99105873  0.25678756  1.0
  O  O77  1  0.57032113  0.68391676  0.28892885  1.0
  O  O78  1  0.61214609  0.76741886  0.01357564  1.0
  O  O79  1  0.62506388  0.45285122  0.59660789  1.0
  O  O80  1  0.65203718  0.36951399  0.16188916  1.0
  O  O81  1  0.66267140  0.28839876  0.83361391  1.0
  O  O82  1  0.69665330  0.03299207  0.02796081  1.0
  O  O83  1  0.71190019  0.06295220  0.51151507  1.0
  O  O84  1  0.73518403  0.99212689  0.77786179  1.0
  O  O85  1  0.75349287  0.57347464  0.09326363  1.0
  O  O86  1  0.79803242  0.74165355  0.77752748  1.0
  O  O87  1  0.79848281  0.57846177  0.35518527  1.0
  O  O88  1  0.81010066  0.49811803  0.86770049  1.0
  O  O89  1  0.82298269  0.22756845  0.00893566  1.0
  O  O90  1  0.82645988  0.80325763  0.11615825  1.0
  O  O91  1  0.83165512  0.82390147  0.54880646  1.0
  O  O92  1  0.83237079  0.25808937  0.65553145  1.0
  O  O93  1  0.89970610  0.49151245  0.61212699  1.0
  O  O94  1  0.91126853  0.98474724  0.28487261  1.0
  O  O95  1  0.91836803  0.31366269  0.41815447  1.0
  O  O96  1  0.97195077  0.67643545  0.96424356  1.0
  O  O97  1  0.97631164  0.41693034  0.02680968  1.0
  O  O98  1  0.98194664  0.17453715  0.83031738  1.0
  O  O99  1  0.99670692  0.02909640  0.03785791  1.0
