# generated using pymatgen
data_In2O3
_symmetry_space_group_name_H-M   P1
_cell_length_a   11.38218930
_cell_length_b   11.54581918
_cell_length_c   11.75486271
_cell_angle_alpha   97.05760636
_cell_angle_beta   92.73019532
_cell_angle_gamma   91.63779507
_symmetry_Int_Tables_number   1
_chemical_formula_structural   In2O3
_chemical_formula_sum   'In40 O60'
_cell_volume   1530.41630384
_cell_formula_units_Z   20
loop_
 _symmetry_equiv_pos_site_id
 _symmetry_equiv_pos_as_xyz
  1  'x, y, z'
loop_
 _atom_site_type_symbol
 _atom_site_label
 _atom_site_symmetry_multiplicity
 _atom_site_fract_x
 _atom_site_fract_y
 _atom_site_fract_z
 _atom_site_occupancy
  In  In0  1  0.02724416  0.51265341  0.95129865  1.0
  In  In1  1  0.03243396  0.25672755  0.12890897  1.0
  In  In2  1  0.04660119  0.25784704  0.43969466  1.0
  In  In3  1  0.10225508  0.24828358  0.85354815  1.0
  In  In4  1  0.10347594  0.92602101  0.66395885  1.0
  In  In5  1  0.11126606  0.47960021  0.68447774  1.0
  In  In6  1  0.14332556  0.79893337  0.90285257  1.0
  In  In7  1  0.16929946  0.68926099  0.19668402  1.0
  In  In8  1  0.17443407  0.98120348  0.14925431  1.0
  In  In9  1  0.22237245  0.68910706  0.50717155  1.0
  In  In10  1  0.28399199  0.98901015  0.41403975  1.0
  In  In11  1  0.29217879  0.23849644  0.62682496  1.0
  In  In12  1  0.29728303  0.37498661  0.41766807  1.0
  In  In13  1  0.33128099  0.04089549  0.94354633  1.0
  In  In14  1  0.36845809  0.58834218  0.78254757  1.0
  In  In15  1  0.39240573  0.33358096  0.88413357  1.0
  In  In16  1  0.39548468  0.48451284  0.17743696  1.0
  In  In17  1  0.40777039  0.87568767  0.69783556  1.0
  In  In18  1  0.41196189  0.80519622  0.11539748  1.0
  In  In19  1  0.46360835  0.13140360  0.23025049  1.0
  In  In20  1  0.56315959  0.36377022  0.66920416  1.0
  In  In21  1  0.58318887  0.38875372  0.35655292  1.0
  In  In22  1  0.58902788  0.11722372  0.79333696  1.0
  In  In23  1  0.59047647  0.65564159  0.57020409  1.0
  In  In24  1  0.60916514  0.01553980  0.47539480  1.0
  In  In25  1  0.61519518  0.92483310  0.97512666  1.0
  In  In26  1  0.65324730  0.30659809  0.06266514  1.0
  In  In27  1  0.65580039  0.60865855  0.02069581  1.0
  In  In28  1  0.66543228  0.67434441  0.34470690  1.0
  In  In29  1  0.70067925  0.90819135  0.23207737  1.0
  In  In30  1  0.74815842  0.91603786  0.68560937  1.0
  In  In31  1  0.80416759  0.21158677  0.27244244  1.0
  In  In32  1  0.83089614  0.46038820  0.50054397  1.0
  In  In33  1  0.86947239  0.22729768  0.68700771  1.0
  In  In34  1  0.87982909  0.05974668  0.97080122  1.0
  In  In35  1  0.88320130  0.49598733  0.22449260  1.0
  In  In36  1  0.89827639  0.77596869  0.11822228  1.0
  In  In37  1  0.90153857  0.02215457  0.42848096  1.0
  In  In38  1  0.92558246  0.69949983  0.72181308  1.0
  In  In39  1  0.96425485  0.76191578  0.43004145  1.0
  O  O40  1  0.00021953  0.38350637  0.79011119  1.0
  O  O41  1  0.00165303  0.36528143  0.27597610  1.0
  O  O42  1  0.03418082  0.17155339  0.60596984  1.0
  O  O43  1  0.04289721  0.93726498  0.49256725  1.0
  O  O44  1  0.05284109  0.74339171  0.59409070  1.0
  O  O45  1  0.05561452  0.08300183  0.05587593  1.0
  O  O46  1  0.07526551  0.81665160  0.08583352  1.0
  O  O47  1  0.10163979  0.36437261  0.01556905  1.0
  O  O48  1  0.11340291  0.69467959  0.35991685  1.0
  O  O49  1  0.13284751  0.12867992  0.67697033  1.0
  O  O50  1  0.14745076  0.39948679  0.51422007  1.0
  O  O51  1  0.15382491  0.61435227  0.86604859  1.0
  O  O52  1  0.22897413  0.17497171  0.44952864  1.0
  O  O53  1  0.24268346  0.91075785  0.78702594  1.0
  O  O54  1  0.24688810  0.59893264  0.64783732  1.0
  O  O55  1  0.24988872  0.37586458  0.76317688  1.0
  O  O56  1  0.25280667  0.51150087  0.29247307  1.0
  O  O57  1  0.27037457  0.19158786  0.89204163  1.0
  O  O58  1  0.27766465  0.86860216  0.25325424  1.0
  O  O59  1  0.28281768  0.88345703  0.01219813  1.0
  O  O60  1  0.29360438  0.87073458  0.54505070  1.0
  O  O61  1  0.31187477  0.10759397  0.12502598  1.0
  O  O62  1  0.32509075  0.63883233  0.11421336  1.0
  O  O63  1  0.32915632  0.56521028  0.39949186  1.0
  O  O64  1  0.41217987  0.32540361  0.28836098  1.0
  O  O65  1  0.41613924  0.35043408  0.55322375  1.0
  O  O66  1  0.44932636  0.21949392  0.73493571  1.0
  O  O67  1  0.45609181  0.07045825  0.39527738  1.0
  O  O68  1  0.47722335  0.96989269  0.85681052  1.0
  O  O69  1  0.47782632  0.70975235  0.70390417  1.0
  O  O70  1  0.47896966  0.39386987  0.04118105  1.0
  O  O71  1  0.50473990  0.47370205  0.81717238  1.0
  O  O72  1  0.53670916  0.95790794  0.14522024  1.0
  O  O73  1  0.54240148  0.74735675  0.99066966  1.0
  O  O74  1  0.55924646  0.53368505  0.26427459  1.0
  O  O75  1  0.56674181  0.97147819  0.64217999  1.0
  O  O76  1  0.58094073  0.15881022  0.97038691  1.0
  O  O77  1  0.61788639  0.23732208  0.22349317  1.0
  O  O78  1  0.61990262  0.85016090  0.37542698  1.0
  O  O79  1  0.64528512  0.45547368  0.53860862  1.0
  O  O80  1  0.69208188  0.25089918  0.72369300  1.0
  O  O81  1  0.72280546  0.71555269  0.17731682  1.0
  O  O82  1  0.73074896  0.99362453  0.85273122  1.0
  O  O83  1  0.73131832  0.06757650  0.34905303  1.0
  O  O84  1  0.75101093  0.46553268  0.07515718  1.0
  O  O85  1  0.76100776  0.74052557  0.64931248  1.0
  O  O86  1  0.77099934  0.39141685  0.32929518  1.0
  O  O87  1  0.79054977  0.93200920  0.07307668  1.0
  O  O88  1  0.79227608  0.03876849  0.57686686  1.0
  O  O89  1  0.81292139  0.69237923  0.95188771  1.0
  O  O90  1  0.83855639  0.21594178  0.09233926  1.0
  O  O91  1  0.84460309  0.61262252  0.38465579  1.0
  O  O92  1  0.87386629  0.28379030  0.51560775  1.0
  O  O93  1  0.88540535  0.86144747  0.30170202  1.0
  O  O94  1  0.88691006  0.61607257  0.87705830  1.0
  O  O95  1  0.93785717  0.15142765  0.83569929  1.0
  O  O96  1  0.94104552  0.53520004  0.63209758  1.0
  O  O97  1  0.96968585  0.13193611  0.31333936  1.0
  O  O98  1  0.99397527  0.60100626  0.12735425  1.0
  O  O99  1  0.99558165  0.86467962  0.80714587  1.0
