# generated using pymatgen
data_In2O3
_symmetry_space_group_name_H-M   Pnma
_cell_length_a   3.20068400
_cell_length_b   5.86131100
_cell_length_c   12.94807200
_cell_angle_alpha   90.00000000
_cell_angle_beta   90.00000000
_cell_angle_gamma   90.00000000
_symmetry_Int_Tables_number   62
_chemical_formula_structural   In2O3
_chemical_formula_sum   'In8 O12'
_cell_volume   242.90847649
_cell_formula_units_Z   4
loop_
 _symmetry_equiv_pos_site_id
 _symmetry_equiv_pos_as_xyz
  1  'x, y, z'
  2  '-x, -y, -z'
  3  '-x, -y+1/2, z+1/2'
  4  'x, y+1/2, -z+1/2'
  5  '-x+1/2, y+1/2, -z+1/2'
  6  'x+1/2, -y+1/2, z+1/2'
  7  'x+1/2, -y, -z'
  8  '-x+1/2, y, z'
loop_
 _atom_site_type_symbol
 _atom_site_label
 _atom_site_symmetry_multiplicity
 _atom_site_fract_x
 _atom_site_fract_y
 _atom_site_fract_z
 _atom_site_occupancy
  In  In0  4  0.25000000  0.17381200  0.80504200  1.0
  In  In1  4  0.25000000  0.26563700  0.04833800  1.0
  O  O2  4  0.25000000  0.02076000  0.59924900  1.0
  O  O3  4  0.25000000  0.14973300  0.22157500  1.0
  O  O4  4  0.25000000  0.37982100  0.43257800  1.0
