# generated using pymatgen
data_In2O3
_symmetry_space_group_name_H-M   Pnma
_cell_length_a   3.18746700
_cell_length_b   8.54513600
_cell_length_c   8.88795900
_cell_angle_alpha   90.00000000
_cell_angle_beta   90.00000000
_cell_angle_gamma   90.00000000
_symmetry_Int_Tables_number   62
_chemical_formula_structural   In2O3
_chemical_formula_sum   'In8 O12'
_cell_volume   242.08435239
_cell_formula_units_Z   4
loop_
 _symmetry_equiv_pos_site_id
 _symmetry_equiv_pos_as_xyz
  1  'x, y, z'
  2  '-x, -y, -z'
  3  '-x, -y+1/2, z+1/2'
  4  'x, y+1/2, -z+1/2'
  5  '-x+1/2, y+1/2, -z+1/2'
  6  'x+1/2, -y+1/2, z+1/2'
  7  'x+1/2, -y, -z'
  8  '-x+1/2, y, z'
loop_
 _atom_site_type_symbol
 _atom_site_label
 _atom_site_symmetry_multiplicity
 _atom_site_fract_x
 _atom_site_fract_y
 _atom_site_fract_z
 _atom_site_occupancy
  In  In0  4  0.25000000  0.31489100  0.01242000  1.0
  In  In1  4  0.25000000  0.49191300  0.68697400  1.0
  O  O2  4  0.25000000  0.05361300  0.37197100  1.0
  O  O3  4  0.25000000  0.22407800  0.67971900  1.0
  O  O4  4  0.25000000  0.38718700  0.43873900  1.0
