# generated using pymatgen
data_In2O3
_symmetry_space_group_name_H-M   Pbcn
_cell_length_a   5.59373200
_cell_length_b   5.68840800
_cell_length_c   8.08265500
_cell_angle_alpha   90.00000000
_cell_angle_beta   90.00000000
_cell_angle_gamma   90.00000000
_symmetry_Int_Tables_number   60
_chemical_formula_structural   In2O3
_chemical_formula_sum   'In8 O12'
_cell_volume   257.18547384
_cell_formula_units_Z   4
loop_
 _symmetry_equiv_pos_site_id
 _symmetry_equiv_pos_as_xyz
  1  'x, y, z'
  2  '-x, -y, -z'
  3  '-x+1/2, y+1/2, -z+1/2'
  4  'x+1/2, -y+1/2, z+1/2'
  5  '-x+1/2, -y, z+1/2'
  6  'x+1/2, y, -z+1/2'
  7  'x, -y+1/2, -z'
  8  '-x, y+1/2, z'
loop_
 _atom_site_type_symbol
 _atom_site_label
 _atom_site_symmetry_multiplicity
 _atom_site_fract_x
 _atom_site_fract_y
 _atom_site_fract_z
 _atom_site_occupancy
  In  In0  8  0.24750500  0.52858700  0.11494400  1.0
  O  O1  8  0.10991200  0.10458400  0.65025100  1.0
  O  O2  4  0.04274400  0.25000000  0.00000000  1.0
