# generated using pymatgen
data_In2O3
_symmetry_space_group_name_H-M   Pbca
_cell_length_a   5.58977100
_cell_length_b   5.77553100
_cell_length_c   16.13529100
_cell_angle_alpha   90.00000000
_cell_angle_beta   90.00000000
_cell_angle_gamma   90.00000000
_symmetry_Int_Tables_number   61
_chemical_formula_structural   In2O3
_chemical_formula_sum   'In16 O24'
_cell_volume   520.91005163
_cell_formula_units_Z   8
loop_
 _symmetry_equiv_pos_site_id
 _symmetry_equiv_pos_as_xyz
  1  'x, y, z'
  2  '-x, -y, -z'
  3  '-x+1/2, -y, z+1/2'
  4  'x+1/2, y, -z+1/2'
  5  'x+1/2, -y+1/2, -z'
  6  '-x+1/2, y+1/2, z'
  7  '-x, y+1/2, -z+1/2'
  8  'x, -y+1/2, z+1/2'
loop_
 _atom_site_type_symbol
 _atom_site_label
 _atom_site_symmetry_multiplicity
 _atom_site_fract_x
 _atom_site_fract_y
 _atom_site_fract_z
 _atom_site_occupancy
  In  In0  8  0.00108500  0.23828200  0.81851200  1.0
  In  In1  8  0.00140900  0.70738300  0.42990100  1.0
  O  O2  8  0.13894500  0.12747700  0.20192100  1.0
  O  O3  8  0.14876300  0.65410100  0.55257200  1.0
  O  O4  8  0.20600200  0.51818700  0.87631500  1.0
