# generated using pymatgen
data_In2Te3
_symmetry_space_group_name_H-M   I4mm
_cell_length_a   7.64775000
_cell_length_b   10.07140260
_cell_length_c   10.07140260
_cell_angle_alpha   81.71169306
_cell_angle_beta   67.68635355
_cell_angle_gamma   67.68635354
_symmetry_Int_Tables_number   107
_chemical_formula_structural   In2Te3
_chemical_formula_sum   'In6 Te9'
_cell_volume   663.90982180
_cell_formula_units_Z   3
loop_
 _symmetry_equiv_pos_site_id
 _symmetry_equiv_pos_as_xyz
  1  'x, y, z'
  2  'x+y, z, -y'
  3  'x+y+z, -y, -z'
  4  'x+z, -z, y'
  5  'x+y+z, -z, -y'
  6  'x+z, y, -z'
  7  'x, z, y'
  8  'x+y, -y, z'
loop_
 _atom_site_type_symbol
 _atom_site_label
 _atom_site_symmetry_multiplicity
 _atom_site_fract_x
 _atom_site_fract_y
 _atom_site_fract_z
 _atom_site_occupancy
  In  In0  4  0.32463200  0.17677700  0.17677700  1.0
  In  In1  2  0.47712000  0.50000000  0.50000000  1.0
  Te  Te2  4  0.23879600  0.33603500  0.66396500  1.0
  Te  Te3  4  0.58845000  0.00000000  0.32835200  1.0
  Te  Te4  1  0.82443500  0.00000000  0.00000000  1.0
