# generated using pymatgen
data_In0.945Sb2.055
_symmetry_space_group_name_H-M   Pmmm
_cell_length_a   15.71030900
_cell_length_b   16.54748100
_cell_length_c   16.63645400
_cell_angle_alpha   90.00000000
_cell_angle_beta   90.00000000
_cell_angle_gamma   90.00000000
_symmetry_Int_Tables_number   47
_chemical_formula_structural   In0.945Sb2.055
_chemical_formula_sum   'In0.945 Sb2.055'
_cell_volume   4324.91306073
_cell_formula_units_Z   1
loop_
 _symmetry_equiv_pos_site_id
 _symmetry_equiv_pos_as_xyz
  1  'x, y, z'
  2  '-x, -y, -z'
  3  '-x, -y, z'
  4  'x, y, -z'
  5  'x, -y, -z'
  6  '-x, y, z'
  7  '-x, y, -z'
  8  'x, -y, z'
loop_
 _atom_site_type_symbol
 _atom_site_label
 _atom_site_symmetry_multiplicity
 _atom_site_fract_x
 _atom_site_fract_y
 _atom_site_fract_z
 _atom_site_occupancy
  In  In0  1  0.50000000  0.00000000  0.50000000  0.945
  Sb  Sb1  1  0.50000000  0.00000000  0.50000000  0.055
  Sb  Sb2  2  0.50000000  0.16299000  0.50000000  1.0
