# generated using pymatgen
data_In3Mo15Se19
_symmetry_space_group_name_H-M   P2_1/m
_cell_length_a   9.91627300
_cell_length_b   9.98722598
_cell_length_c   19.68753800
_cell_angle_alpha   90.00000000
_cell_angle_beta   90.00000000
_cell_angle_gamma   119.49560773
_symmetry_Int_Tables_number   11
_chemical_formula_structural   In3Mo15Se19
_chemical_formula_sum   'In6 Mo30 Se38'
_cell_volume   1697.07240240
_cell_formula_units_Z   2
loop_
 _symmetry_equiv_pos_site_id
 _symmetry_equiv_pos_as_xyz
  1  'x, y, z'
  2  '-x, -y, -z'
  3  '-x, -y, z+1/2'
  4  'x, y, -z+1/2'
loop_
 _atom_site_type_symbol
 _atom_site_label
 _atom_site_symmetry_multiplicity
 _atom_site_fract_x
 _atom_site_fract_y
 _atom_site_fract_z
 _atom_site_occupancy
  In  In0  4  0.32353300  0.66614200  0.12444400  1.0
  In  In1  2  0.22065800  0.18120500  0.75000000  1.0
  Mo  Mo2  4  0.01663300  0.85269500  0.55577600  1.0
  Mo  Mo3  4  0.14850400  0.16239800  0.55753200  1.0
  Mo  Mo4  4  0.16242600  0.01270400  0.05576700  1.0
  Mo  Mo5  4  0.18846600  0.50924200  0.63455900  1.0
  Mo  Mo6  4  0.31748100  0.81305100  0.63398700  1.0
  Mo  Mo7  4  0.49616200  0.68602500  0.63552400  1.0
  Mo  Mo8  2  0.17165700  0.65679400  0.75000000  1.0
  Mo  Mo9  2  0.34563900  0.51016900  0.75000000  1.0
  Mo  Mo10  2  0.48906700  0.83019700  0.75000000  1.0
  Se  Se11  4  0.00633000  0.01004300  0.16029800  1.0
  Se  Se12  4  0.01159200  0.63486600  0.64156900  1.0
  Se  Se13  4  0.02900400  0.71276000  0.05334500  1.0
  Se  Se14  4  0.28680500  0.31406700  0.04984700  1.0
  Se  Se15  4  0.31977000  0.03390200  0.55253500  1.0
  Se  Se16  4  0.33204700  0.66911300  0.53116200  1.0
  Se  Se17  4  0.37514700  0.38961500  0.63356500  1.0
  Se  Se18  4  0.37871100  0.01113000  0.14198700  1.0
  Se  Se19  2  0.04139300  0.35876500  0.75000000  1.0
  Se  Se20  2  0.31254500  0.95522500  0.75000000  1.0
  Se  Se21  2  0.35489300  0.31476400  0.25000000  1.0
