# generated using pymatgen
data_In3Te4
_symmetry_space_group_name_H-M   R-3m
_cell_length_a   4.34057579
_cell_length_b   4.34057579
_cell_length_c   14.07137906
_cell_angle_alpha   81.12762307
_cell_angle_beta   81.12762307
_cell_angle_gamma   60.00000321
_symmetry_Int_Tables_number   166
_chemical_formula_structural   In3Te4
_chemical_formula_sum   'In3 Te4'
_cell_volume   225.92434446
_cell_formula_units_Z   1
loop_
 _symmetry_equiv_pos_site_id
 _symmetry_equiv_pos_as_xyz
  1  'x, y, z'
  2  '-x, -y, -z'
  3  '-x-y-z, x, z'
  4  'x+y+z, -x, -z'
  5  'y, -x-y-z, z'
  6  '-y, x+y+z, -z'
  7  '-x, x+y+z, -z'
  8  'x, -x-y-z, z'
  9  'x+y+z, -y, -z'
  10  '-x-y-z, y, z'
  11  '-y, -x, -z'
  12  'y, x, z'
loop_
 _atom_site_type_symbol
 _atom_site_label
 _atom_site_symmetry_multiplicity
 _atom_site_fract_x
 _atom_site_fract_y
 _atom_site_fract_z
 _atom_site_occupancy
  In  In0  2  0.42663300  0.42663300  0.72010100  1.0
  In  In1  1  0.00000000  0.00000000  0.00000000  1.0
  Te  Te2  2  0.12876800  0.12876800  0.61369600  1.0
  Te  Te3  2  0.29060700  0.29060700  0.12817900  1.0
