# generated using pymatgen
data_Mo2.04Ir1.96
_symmetry_space_group_name_H-M   Pmma
_cell_length_a   2.77534600
_cell_length_b   4.46305900
_cell_length_c   4.86171400
_cell_angle_alpha   90.00000000
_cell_angle_beta   90.00000000
_cell_angle_gamma   90.00000000
_symmetry_Int_Tables_number   51
_chemical_formula_structural   Mo2.04Ir1.96
_chemical_formula_sum   'Mo2.04 Ir1.96'
_cell_volume   60.21978062
_cell_formula_units_Z   1
loop_
 _symmetry_equiv_pos_site_id
 _symmetry_equiv_pos_as_xyz
  1  'x, y, z'
  2  '-x, -y, -z'
  3  '-x, -y+1/2, z'
  4  'x, y+1/2, -z'
  5  '-x, y+1/2, -z'
  6  'x, -y+1/2, z'
  7  'x, -y, -z'
  8  '-x, y, z'
loop_
 _atom_site_type_symbol
 _atom_site_label
 _atom_site_symmetry_multiplicity
 _atom_site_fract_x
 _atom_site_fract_y
 _atom_site_fract_z
 _atom_site_occupancy
  Mo  Mo0  2  0.00000000  0.25000000  0.82913900  1.0
  Ir  Ir1  2  0.50000000  0.25000000  0.32574100  0.98
  Mo  Mo2  2  0.50000000  0.25000000  0.32574100  0.02
