# generated using pymatgen
data_Te8Ir3.84Rh0.16
_symmetry_space_group_name_H-M   Pnma
_cell_length_a   4.04980500
_cell_length_b   5.44186300
_cell_length_c   13.58747400
_cell_angle_alpha   90.00000000
_cell_angle_beta   90.00000000
_cell_angle_gamma   90.00000000
_symmetry_Int_Tables_number   62
_chemical_formula_structural   Te8Ir3.84Rh0.16
_chemical_formula_sum   'Te8 Ir3.84 Rh0.16'
_cell_volume   299.44732817
_cell_formula_units_Z   1
loop_
 _symmetry_equiv_pos_site_id
 _symmetry_equiv_pos_as_xyz
  1  'x, y, z'
  2  '-x, -y, -z'
  3  '-x, y+1/2, -z+1/2'
  4  'x, -y+1/2, z+1/2'
  5  '-x+1/2, -y+1/2, z+1/2'
  6  'x+1/2, y+1/2, -z+1/2'
  7  'x+1/2, -y, -z'
  8  '-x+1/2, y, z'
loop_
 _atom_site_type_symbol
 _atom_site_label
 _atom_site_symmetry_multiplicity
 _atom_site_fract_x
 _atom_site_fract_y
 _atom_site_fract_z
 _atom_site_occupancy
  Te  Te0  4  0.25000000  0.19977300  0.30777700  1.0
  Te  Te1  4  0.25000000  0.73193200  0.44933000  1.0
  Ir  Ir2  4  0.25000000  0.52026700  0.63436000  0.96
  Rh  Rh3  4  0.25000000  0.52026700  0.63436000  0.04
