# generated using pymatgen
data_Ir1.76Ru6.24
_symmetry_space_group_name_H-M   P6_3/mmc
_cell_length_a   4.32485800
_cell_length_b   5.47935000
_cell_length_c   5.47934974
_cell_angle_alpha   120.00000155
_cell_angle_beta   90.00000000
_cell_angle_gamma   90.00000000
_symmetry_Int_Tables_number   194
_chemical_formula_structural   Ir1.76Ru6.24
_chemical_formula_sum   'Ir1.76 Ru6.24'
_cell_volume   112.45028015
_cell_formula_units_Z   1
loop_
 _symmetry_equiv_pos_site_id
 _symmetry_equiv_pos_as_xyz
  1  'x, y, z'
  2  '-x, -y, -z'
  3  'x+1/2, z, -y+z'
  4  '-x+1/2, -z, y-z'
  5  'x, -y+z, -y'
  6  '-x, y-z, y'
  7  'x+1/2, -y, -z'
  8  '-x+1/2, y, z'
  9  'x, -z, y-z'
  10  '-x, z, -y+z'
  11  'x+1/2, y-z, y'
  12  '-x+1/2, -y+z, -y'
  13  '-x+1/2, -y+z, z'
  14  'x+1/2, y-z, -z'
  15  '-x, -y, -y+z'
  16  'x, y, y-z'
  17  '-x+1/2, -z, -y'
  18  'x+1/2, z, y'
  19  '-x, y-z, -z'
  20  'x, -y+z, z'
  21  '-x+1/2, y, y-z'
  22  'x+1/2, -y, -y+z'
  23  '-x, z, y'
  24  'x, -z, -y'
loop_
 _atom_site_type_symbol
 _atom_site_label
 _atom_site_symmetry_multiplicity
 _atom_site_fract_x
 _atom_site_fract_y
 _atom_site_fract_z
 _atom_site_occupancy
  Ru  Ru0  6  0.25000000  0.16592700  0.83407300  1.0
  Ir  Ir1  2  0.25000000  0.66666667  0.33333333  0.88
  Ru  Ru2  2  0.25000000  0.66666667  0.33333333  0.12
