# generated using pymatgen
data_Ir0.86Ru1.14
_symmetry_space_group_name_H-M   R-3m
_cell_length_a   2.71738567
_cell_length_b   2.71738567
_cell_length_c   4.72318555
_cell_angle_alpha   73.28182963
_cell_angle_beta   73.28182963
_cell_angle_gamma   60.00000812
_symmetry_Int_Tables_number   166
_chemical_formula_structural   Ir0.86Ru1.14
_chemical_formula_sum   'Ir0.86 Ru1.14'
_cell_volume   28.48929200
_cell_formula_units_Z   1
loop_
 _symmetry_equiv_pos_site_id
 _symmetry_equiv_pos_as_xyz
  1  'x, y, z'
  2  '-x, -y, -z'
  3  '-x-y-z, x, z'
  4  'x+y+z, -x, -z'
  5  'y, -x-y-z, z'
  6  '-y, x+y+z, -z'
  7  '-x, x+y+z, -z'
  8  'x, -x-y-z, z'
  9  'x+y+z, -y, -z'
  10  '-x-y-z, y, z'
  11  '-y, -x, -z'
  12  'y, x, z'
loop_
 _atom_site_type_symbol
 _atom_site_label
 _atom_site_symmetry_multiplicity
 _atom_site_fract_x
 _atom_site_fract_y
 _atom_site_fract_z
 _atom_site_occupancy
  Ir  Ir0  1  0.00000000  0.00000000  0.00000000  0.86
  Ru  Ru1  1  0.00000000  0.00000000  0.00000000  0.14
  Ru  Ru2  1  0.50000000  0.50000000  0.50000000  1.0
