# generated using pymatgen
data_LaSi3Ir
_symmetry_space_group_name_H-M   I4mm
_cell_length_a   4.29529200
_cell_length_b   4.29529200
_cell_length_c   5.81733682
_cell_angle_alpha   111.66507153
_cell_angle_beta   111.66507152
_cell_angle_gamma   90.00000001
_symmetry_Int_Tables_number   107
_chemical_formula_structural   LaSi3Ir
_chemical_formula_sum   'La1 Si3 Ir1'
_cell_volume   91.53765495
_cell_formula_units_Z   1
loop_
 _symmetry_equiv_pos_site_id
 _symmetry_equiv_pos_as_xyz
  1  'x, y, z'
  2  '-y+z, x, z'
  3  '-x+z, -y+z, z'
  4  'y, -x+z, z'
  5  '-x+z, y, z'
  6  'y, x, z'
  7  'x, -y+z, z'
  8  '-y+z, -x+z, z'
loop_
 _atom_site_type_symbol
 _atom_site_label
 _atom_site_symmetry_multiplicity
 _atom_site_fract_x
 _atom_site_fract_y
 _atom_site_fract_z
 _atom_site_occupancy
  La  La0  1  0.99802200  0.99802200  0.99604400  1.0
  Si  Si1  2  0.26239000  0.76239000  0.52478000  1.0
  Si  Si2  1  0.41264500  0.41264500  0.82529000  1.0
  Ir  Ir3  1  0.65405200  0.65405200  0.30810400  1.0
