# generated using pymatgen
data_Lu10Ir3.33333333
_symmetry_space_group_name_H-M   C2/c
_cell_length_a   6.39069200
_cell_length_b   7.11135312
_cell_length_c   8.27351042
_cell_angle_alpha   96.53173047
_cell_angle_beta   112.71913092
_cell_angle_gamma   90.00000000
_symmetry_Int_Tables_number   15
_chemical_formula_structural   Lu10Ir3.33333333
_chemical_formula_sum   'Lu10 Ir3.33333333'
_cell_volume   344.18009456
_cell_formula_units_Z   1
loop_
 _symmetry_equiv_pos_site_id
 _symmetry_equiv_pos_as_xyz
  1  'x, y, z'
  2  '-x, -y, -z'
  3  'x-z, -y+1/2, -z'
  4  '-x+z, y+1/2, z'
loop_
 _atom_site_type_symbol
 _atom_site_label
 _atom_site_symmetry_multiplicity
 _atom_site_fract_x
 _atom_site_fract_y
 _atom_site_fract_z
 _atom_site_occupancy
  Lu  Lu0  4  0.03048100  0.08012000  0.81810800  1.0
  Lu  Lu1  4  0.21253700  0.68198000  0.55793100  1.0
  Lu  Lu2  2  0.42850900  0.75000000  0.00000000  1.0
  Ir  Ir3  4  0.17287100  0.42716600  0.78208800  0.833333333325
