# generated using pymatgen
data_La10Ir3.33333333
_symmetry_space_group_name_H-M   C2/c
_cell_length_a   6.77957400
_cell_length_b   7.41594157
_cell_length_c   9.18235801
_cell_angle_alpha   95.99296464
_cell_angle_beta   111.66400773
_cell_angle_gamma   90.00000000
_symmetry_Int_Tables_number   15
_chemical_formula_structural   La10Ir3.33333333
_chemical_formula_sum   'La10 Ir3.33333333'
_cell_volume   426.33511089
_cell_formula_units_Z   1
loop_
 _symmetry_equiv_pos_site_id
 _symmetry_equiv_pos_as_xyz
  1  'x, y, z'
  2  '-x, -y, -z'
  3  'x-z, -y+1/2, -z'
  4  '-x+z, y+1/2, z'
loop_
 _atom_site_type_symbol
 _atom_site_label
 _atom_site_symmetry_multiplicity
 _atom_site_fract_x
 _atom_site_fract_y
 _atom_site_fract_z
 _atom_site_occupancy
  La  La0  4  0.01428000  0.58841600  0.81362000  1.0
  La  La1  4  0.21283100  0.18325400  0.56916400  1.0
  La  La2  2  0.42214800  0.25000000  0.00000000  1.0
  Ir  Ir3  4  0.18391100  0.91995700  0.77677600  0.833333333325
