# generated using pymatgen
data_NbIr
_symmetry_space_group_name_H-M   Pmma
_cell_length_a   2.87229600
_cell_length_b   4.89446700
_cell_length_c   13.90158800
_cell_angle_alpha   90.00000000
_cell_angle_beta   90.00000000
_cell_angle_gamma   90.00000000
_symmetry_Int_Tables_number   51
_chemical_formula_structural   NbIr
_chemical_formula_sum   'Nb6 Ir6'
_cell_volume   195.43350068
_cell_formula_units_Z   6
loop_
 _symmetry_equiv_pos_site_id
 _symmetry_equiv_pos_as_xyz
  1  'x, y, z'
  2  '-x, -y, -z'
  3  '-x, y, -z+1/2'
  4  'x, -y, z+1/2'
  5  '-x, -y, z+1/2'
  6  'x, y, -z+1/2'
  7  'x, -y, -z'
  8  '-x, y, z'
loop_
 _atom_site_type_symbol
 _atom_site_label
 _atom_site_symmetry_multiplicity
 _atom_site_fract_x
 _atom_site_fract_y
 _atom_site_fract_z
 _atom_site_occupancy
  Nb  Nb0  4  0.00000000  0.32329900  0.58447200  1.0
  Nb  Nb1  2  0.00000000  0.04420800  0.25000000  1.0
  Ir  Ir2  4  0.50000000  0.17796900  0.08335400  1.0
  Ir  Ir3  2  0.50000000  0.46189400  0.75000000  1.0
