# generated using pymatgen
data_TiSiIr
_symmetry_space_group_name_H-M   Pnma
_cell_length_a   3.88203100
_cell_length_b   6.27649100
_cell_length_c   7.24388300
_cell_angle_alpha   90.00000000
_cell_angle_beta   90.00000000
_cell_angle_gamma   90.00000000
_symmetry_Int_Tables_number   62
_chemical_formula_structural   TiSiIr
_chemical_formula_sum   'Ti4 Si4 Ir4'
_cell_volume   176.50106763
_cell_formula_units_Z   4
loop_
 _symmetry_equiv_pos_site_id
 _symmetry_equiv_pos_as_xyz
  1  'x, y, z'
  2  '-x, -y, -z'
  3  '-x, -y+1/2, z+1/2'
  4  'x, y+1/2, -z+1/2'
  5  '-x+1/2, y+1/2, -z+1/2'
  6  'x+1/2, -y+1/2, z+1/2'
  7  'x+1/2, -y, -z'
  8  '-x+1/2, y, z'
loop_
 _atom_site_type_symbol
 _atom_site_label
 _atom_site_symmetry_multiplicity
 _atom_site_fract_x
 _atom_site_fract_y
 _atom_site_fract_z
 _atom_site_occupancy
  Ti  Ti0  4  0.25000000  0.02347800  0.81871600  1.0
  Si  Si1  4  0.25000000  0.27071800  0.12289900  1.0
  Ir  Ir2  4  0.25000000  0.15655600  0.43794000  1.0
