# generated using pymatgen
data_YSiIr
_symmetry_space_group_name_H-M   Pnma
_cell_length_a   4.23854600
_cell_length_b   6.86641400
_cell_length_c   7.50518100
_cell_angle_alpha   90.00000000
_cell_angle_beta   90.00000000
_cell_angle_gamma   90.00000000
_symmetry_Int_Tables_number   62
_chemical_formula_structural   YSiIr
_chemical_formula_sum   'Y4 Si4 Ir4'
_cell_volume   218.42787277
_cell_formula_units_Z   4
loop_
 _symmetry_equiv_pos_site_id
 _symmetry_equiv_pos_as_xyz
  1  'x, y, z'
  2  '-x, -y, -z'
  3  '-x, -y+1/2, z+1/2'
  4  'x, y+1/2, -z+1/2'
  5  '-x+1/2, y+1/2, -z+1/2'
  6  'x+1/2, -y+1/2, z+1/2'
  7  'x+1/2, -y, -z'
  8  '-x+1/2, y, z'
loop_
 _atom_site_type_symbol
 _atom_site_label
 _atom_site_symmetry_multiplicity
 _atom_site_fract_x
 _atom_site_fract_y
 _atom_site_fract_z
 _atom_site_occupancy
  Y  Y0  4  0.25000000  0.00384500  0.31267900  1.0
  Si  Si1  4  0.25000000  0.29778000  0.60877700  1.0
  Ir  Ir2  4  0.25000000  0.15714800  0.93366100  1.0
