# generated using pymatgen
data_ThSiIr
_symmetry_space_group_name_H-M   I4_1md
_cell_length_a   4.19050400
_cell_length_b   4.19050400
_cell_length_c   7.81684569
_cell_angle_alpha   105.54785644
_cell_angle_beta   105.54785645
_cell_angle_gamma   89.99999998
_symmetry_Int_Tables_number   109
_chemical_formula_structural   ThSiIr
_chemical_formula_sum   'Th2 Si2 Ir2'
_cell_volume   127.02186450
_cell_formula_units_Z   2
loop_
 _symmetry_equiv_pos_site_id
 _symmetry_equiv_pos_as_xyz
  1  'x, y, z'
  2  '-y+z+3/4, x+1/4, z+1/2'
  3  '-x+z, -y+z, z'
  4  'y+3/4, -x+z+1/4, z+1/2'
  5  '-x+z, y, z'
  6  'y+3/4, x+1/4, z+1/2'
  7  'x, -y+z, z'
  8  '-y+z+3/4, -x+z+1/4, z+1/2'
loop_
 _atom_site_type_symbol
 _atom_site_label
 _atom_site_symmetry_multiplicity
 _atom_site_fract_x
 _atom_site_fract_y
 _atom_site_fract_z
 _atom_site_occupancy
  Th  Th0  2  0.32787500  0.82787500  0.65575000  1.0
  Si  Si1  2  0.00043300  0.00043300  0.00086600  1.0
  Ir  Ir2  2  0.16869200  0.16869200  0.33738400  1.0
