# generated using pymatgen
data_IrSe2
_symmetry_space_group_name_H-M   Pnma
_cell_length_a   3.80690300
_cell_length_b   6.02149800
_cell_length_c   21.26268400
_cell_angle_alpha   90.00000000
_cell_angle_beta   90.00000000
_cell_angle_gamma   90.00000000
_symmetry_Int_Tables_number   62
_chemical_formula_structural   IrSe2
_chemical_formula_sum   'Ir8 Se16'
_cell_volume   487.41000813
_cell_formula_units_Z   8
loop_
 _symmetry_equiv_pos_site_id
 _symmetry_equiv_pos_as_xyz
  1  'x, y, z'
  2  '-x, -y, -z'
  3  '-x, y+1/2, -z+1/2'
  4  'x, -y+1/2, z+1/2'
  5  '-x+1/2, -y+1/2, z+1/2'
  6  'x+1/2, y+1/2, -z+1/2'
  7  'x+1/2, -y, -z'
  8  '-x+1/2, y, z'
loop_
 _atom_site_type_symbol
 _atom_site_label
 _atom_site_symmetry_multiplicity
 _atom_site_fract_x
 _atom_site_fract_y
 _atom_site_fract_z
 _atom_site_occupancy
  Ir  Ir0  4  0.25000000  0.55861800  0.30500500  1.0
  Ir  Ir1  4  0.25000000  0.56955600  0.07656100  1.0
  Se  Se2  4  0.25000000  0.18273800  0.26131000  1.0
  Se  Se3  4  0.25000000  0.22267600  0.49079200  1.0
  Se  Se4  4  0.25000000  0.54806500  0.62200100  1.0
  Se  Se5  4  0.25000000  0.57253500  0.86158200  1.0
