# generated using pymatgen
data_Ir2.75862069Se8
_symmetry_space_group_name_H-M   R-3
_cell_length_a   6.06125485
_cell_length_b   6.06125485
_cell_length_c   6.06125495
_cell_angle_alpha   90.48825354
_cell_angle_beta   89.51174646
_cell_angle_gamma   89.51174934
_symmetry_Int_Tables_number   148
_chemical_formula_structural   Ir2.75862069Se8
_chemical_formula_sum   'Ir2.75862069 Se8'
_cell_volume   222.65890139
_cell_formula_units_Z   1
loop_
 _symmetry_equiv_pos_site_id
 _symmetry_equiv_pos_as_xyz
  1  'x, y, z'
  2  '-x, -y, -z'
  3  '-z, -x, y'
  4  'z, x, -y'
  5  '-y, z, -x'
  6  'y, -z, x'
loop_
 _atom_site_type_symbol
 _atom_site_label
 _atom_site_symmetry_multiplicity
 _atom_site_fract_x
 _atom_site_fract_y
 _atom_site_fract_z
 _atom_site_occupancy
  Ir  Ir0  3  0.00000000  0.50000000  0.50000000  0.9195402299
  Se  Se1  6  0.11602000  0.61780800  0.12133000  1.0
  Se  Se2  2  0.37476200  0.62523800  0.62523800  1.0
