# generated using pymatgen
data_Te2Ir
_symmetry_space_group_name_H-M   Pnma
_cell_length_a   4.07482700
_cell_length_b   6.46899800
_cell_length_c   22.91682400
_cell_angle_alpha   90.00000000
_cell_angle_beta   90.00000000
_cell_angle_gamma   90.00000000
_symmetry_Int_Tables_number   62
_chemical_formula_structural   Te2Ir
_chemical_formula_sum   'Te16 Ir8'
_cell_volume   604.08857408
_cell_formula_units_Z   8
loop_
 _symmetry_equiv_pos_site_id
 _symmetry_equiv_pos_as_xyz
  1  'x, y, z'
  2  '-x, -y, -z'
  3  '-x, y+1/2, -z+1/2'
  4  'x, -y+1/2, z+1/2'
  5  '-x+1/2, -y+1/2, z+1/2'
  6  'x+1/2, y+1/2, -z+1/2'
  7  'x+1/2, -y, -z'
  8  '-x+1/2, y, z'
loop_
 _atom_site_type_symbol
 _atom_site_label
 _atom_site_symmetry_multiplicity
 _atom_site_fract_x
 _atom_site_fract_y
 _atom_site_fract_z
 _atom_site_occupancy
  Te  Te0  4  0.25000000  0.18911900  0.25928100  1.0
  Te  Te1  4  0.25000000  0.22102600  0.49096700  1.0
  Te  Te2  4  0.25000000  0.55109700  0.62186800  1.0
  Te  Te3  4  0.25000000  0.57710400  0.86350800  1.0
  Ir  Ir4  4  0.25000000  0.56059900  0.30558500  1.0
  Ir  Ir5  4  0.25000000  0.56769100  0.07593900  1.0
