# generated using pymatgen
data_Te2Ir
_symmetry_space_group_name_H-M   P-1
_cell_length_a   4.03013900
_cell_length_b   6.85039428
_cell_length_c   14.46090199
_cell_angle_alpha   99.33076028
_cell_angle_beta   91.75096544
_cell_angle_gamma   106.77883404
_symmetry_Int_Tables_number   2
_chemical_formula_structural   Te2Ir
_chemical_formula_sum   'Te10 Ir5'
_cell_volume   375.91604223
_cell_formula_units_Z   5
loop_
 _symmetry_equiv_pos_site_id
 _symmetry_equiv_pos_as_xyz
  1  'x, y, z'
  2  '-x, -y, -z'
loop_
 _atom_site_type_symbol
 _atom_site_label
 _atom_site_symmetry_multiplicity
 _atom_site_fract_x
 _atom_site_fract_y
 _atom_site_fract_z
 _atom_site_occupancy
  Te  Te0  2  0.05259700  0.05149200  0.68750500  1.0
  Te  Te1  2  0.20060200  0.47019700  0.28222700  1.0
  Te  Te2  2  0.21792400  0.30992200  0.90908100  1.0
  Te  Te3  2  0.37204900  0.73668400  0.51338500  1.0
  Te  Te4  2  0.47217900  0.83534200  0.88964400  1.0
  Ir  Ir5  2  0.14707900  0.42602300  0.09161100  1.0
  Ir  Ir6  2  0.42621000  0.79240200  0.70303000  1.0
  Ir  Ir7  1  0.00000000  0.00000000  0.50000000  1.0
