# generated using pymatgen
data_Te8Ir2.66666667
_symmetry_space_group_name_H-M   R-3
_cell_length_a   6.52222488
_cell_length_b   6.52222488
_cell_length_c   6.52222535
_cell_angle_alpha   90.87008577
_cell_angle_beta   90.87008577
_cell_angle_gamma   90.87008397
_symmetry_Int_Tables_number   148
_chemical_formula_structural   Te8Ir2.66666667
_chemical_formula_sum   'Te8 Ir2.66666667'
_cell_volume   277.35471063
_cell_formula_units_Z   1
loop_
 _symmetry_equiv_pos_site_id
 _symmetry_equiv_pos_as_xyz
  1  'x, y, z'
  2  '-x, -y, -z'
  3  'z, x, y'
  4  '-z, -x, -y'
  5  'y, z, x'
  6  '-y, -z, -x'
loop_
 _atom_site_type_symbol
 _atom_site_label
 _atom_site_symmetry_multiplicity
 _atom_site_fract_x
 _atom_site_fract_y
 _atom_site_fract_z
 _atom_site_occupancy
  Te  Te0  6  0.12349000  0.86813500  0.37005000  1.0
  Te  Te1  2  0.36838900  0.36838900  0.36838900  1.0
  Ir  Ir2  3  0.00000000  0.50000000  0.50000000  0.8888888889
