# generated using pymatgen
data_Te2Ir
_symmetry_space_group_name_H-M   C2/m
_cell_length_a   4.06576000
_cell_length_b   5.41228916
_cell_length_c   10.29003451
_cell_angle_alpha   89.62109048
_cell_angle_beta   101.39420146
_cell_angle_gamma   90.00000000
_symmetry_Int_Tables_number   12
_chemical_formula_structural   Te2Ir
_chemical_formula_sum   'Te6 Ir3'
_cell_volume   221.96513894
_cell_formula_units_Z   3
loop_
 _symmetry_equiv_pos_site_id
 _symmetry_equiv_pos_as_xyz
  1  'x, y, z'
  2  '-x, -y, -z'
  3  'x-z, -y, -z'
  4  '-x+z, y, z'
loop_
 _atom_site_type_symbol
 _atom_site_label
 _atom_site_symmetry_multiplicity
 _atom_site_fract_x
 _atom_site_fract_y
 _atom_site_fract_z
 _atom_site_occupancy
  Te  Te0  2  0.12123900  0.28710400  0.24247800  1.0
  Te  Te1  2  0.21925600  0.76171700  0.43851200  1.0
  Te  Te2  2  0.45572200  0.22274200  0.91144400  1.0
  Ir  Ir3  2  0.34059900  0.99736000  0.68119800  1.0
  Ir  Ir4  1  0.00000000  0.50000000  0.00000000  1.0
