# generated using pymatgen
data_UIr
_symmetry_space_group_name_H-M   P2_1/c
_cell_length_a   5.59436600
_cell_length_b   5.64073474
_cell_length_c   10.56015400
_cell_angle_alpha   90.00000000
_cell_angle_beta   90.00000000
_cell_angle_gamma   99.38056804
_symmetry_Int_Tables_number   14
_chemical_formula_structural   UIr
_chemical_formula_sum   'U8 Ir8'
_cell_volume   328.78350396
_cell_formula_units_Z   8
loop_
 _symmetry_equiv_pos_site_id
 _symmetry_equiv_pos_as_xyz
  1  'x, y, z'
  2  '-x, -y, -z'
  3  '-x+1/2, -y, z+1/2'
  4  'x+1/2, y, -z+1/2'
loop_
 _atom_site_type_symbol
 _atom_site_label
 _atom_site_symmetry_multiplicity
 _atom_site_fract_x
 _atom_site_fract_y
 _atom_site_fract_z
 _atom_site_occupancy
  U  U0  4  0.08753000  0.39421100  0.13300200  1.0
  U  U1  4  0.15175100  0.86262600  0.36124900  1.0
  Ir  Ir2  4  0.08785800  0.35675100  0.39636100  1.0
  Ir  Ir3  4  0.16122400  0.90885800  0.10018200  1.0
