# generated using pymatgen
data_UIr
_symmetry_space_group_name_H-M   P2_1
_cell_length_a   5.59781100
_cell_length_b   5.61447109
_cell_length_c   10.63033500
_cell_angle_alpha   90.00000000
_cell_angle_beta   90.00000000
_cell_angle_gamma   98.38754979
_symmetry_Int_Tables_number   4
_chemical_formula_structural   UIr
_chemical_formula_sum   'U8 Ir8'
_cell_volume   330.52462438
_cell_formula_units_Z   8
loop_
 _symmetry_equiv_pos_site_id
 _symmetry_equiv_pos_as_xyz
  1  'x, y, z'
  2  '-x, -y, z+1/2'
loop_
 _atom_site_type_symbol
 _atom_site_label
 _atom_site_symmetry_multiplicity
 _atom_site_fract_x
 _atom_site_fract_y
 _atom_site_fract_z
 _atom_site_occupancy
  U  U0  2  0.10266800  0.13128800  0.00385800  1.0
  U  U1  2  0.15667100  0.60436500  0.77474200  1.0
  U  U2  2  0.34654000  0.38724900  0.50782300  1.0
  U  U3  2  0.40054700  0.85683400  0.27768500  1.0
  Ir  Ir4  2  0.09481800  0.09872300  0.74201400  1.0
  Ir  Ir5  2  0.15330200  0.63861200  0.03985600  1.0
  Ir  Ir6  2  0.33967100  0.34916800  0.24471100  1.0
  Ir  Ir7  2  0.39830400  0.89281300  0.54131000  1.0
