# generated using pymatgen
data_VIr
_symmetry_space_group_name_H-M   Cmcm
_cell_length_a   4.06332100
_cell_length_b   5.25571283
_cell_length_c   5.25571283
_cell_angle_alpha   95.88582874
_cell_angle_beta   90.00000000
_cell_angle_gamma   90.00000000
_symmetry_Int_Tables_number   63
_chemical_formula_structural   VIr
_chemical_formula_sum   'V4 Ir4'
_cell_volume   111.64745367
_cell_formula_units_Z   4
loop_
 _symmetry_equiv_pos_site_id
 _symmetry_equiv_pos_as_xyz
  1  'x, y, z'
  2  '-x, -y, -z'
  3  'x+1/2, -y, -z'
  4  '-x+1/2, y, z'
  5  '-x, z, y'
  6  'x, -z, -y'
  7  '-x+1/2, -z, -y'
  8  'x+1/2, z, y'
loop_
 _atom_site_type_symbol
 _atom_site_label
 _atom_site_symmetry_multiplicity
 _atom_site_fract_x
 _atom_site_fract_y
 _atom_site_fract_z
 _atom_site_occupancy
  V  V0  2  0.25000000  0.40633300  0.59366700  1.0
  V  V1  2  0.25000000  0.83229100  0.16770900  1.0
  Ir  Ir2  4  0.25000000  0.34350500  0.09546800  1.0
