# generated using pymatgen
data_VIr
_symmetry_space_group_name_H-M   Immm
_cell_length_a   7.18760400
_cell_length_b   8.66676428
_cell_length_c   8.66676428
_cell_angle_alpha   80.32527874
_cell_angle_beta   65.50179143
_cell_angle_gamma   65.50179144
_symmetry_Int_Tables_number   71
_chemical_formula_structural   VIr
_chemical_formula_sum   'V16 Ir16'
_cell_volume   447.04527193
_cell_formula_units_Z   16
loop_
 _symmetry_equiv_pos_site_id
 _symmetry_equiv_pos_as_xyz
  1  'x, y, z'
  2  '-x, -y, -z'
  3  '-x, -z, -y'
  4  'x, z, y'
  5  'x+y+z, -y, -z'
  6  '-x-y-z, y, z'
  7  '-x-y-z, z, y'
  8  'x+y+z, -z, -y'
loop_
 _atom_site_type_symbol
 _atom_site_label
 _atom_site_symmetry_multiplicity
 _atom_site_fract_x
 _atom_site_fract_y
 _atom_site_fract_z
 _atom_site_occupancy
  V  V0  4  0.13118300  0.09601800  0.64161600  1.0
  V  V1  4  0.38115800  0.38872900  0.84895600  1.0
  V  V2  2  0.13018700  0.86981300  0.86981300  1.0
  V  V3  2  0.13203000  0.36797000  0.36797000  1.0
  V  V4  2  0.37974200  0.62025800  0.62025800  1.0
  V  V5  2  0.38385600  0.11614400  0.11614400  1.0
  Ir  Ir6  8  0.01856700  0.12267100  0.37654800  1.0
  Ir  Ir7  4  0.22295700  0.37297200  0.62702700  1.0
  Ir  Ir8  4  0.25685000  0.12694300  0.87305700  1.0
