# generated using pymatgen
data_VIr
_symmetry_space_group_name_H-M   Cmmm
_cell_length_a   2.82268700
_cell_length_b   4.46341358
_cell_length_c   4.46341358
_cell_angle_alpha   98.69654106
_cell_angle_beta   90.00000000
_cell_angle_gamma   90.00000000
_symmetry_Int_Tables_number   65
_chemical_formula_structural   VIr
_chemical_formula_sum   'V2 Ir2'
_cell_volume   55.58722360
_cell_formula_units_Z   2
loop_
 _symmetry_equiv_pos_site_id
 _symmetry_equiv_pos_as_xyz
  1  'x, y, z'
  2  '-x, -y, -z'
  3  'x, -y, -z'
  4  '-x, y, z'
  5  '-x, z, y'
  6  'x, -z, -y'
  7  '-x, -z, -y'
  8  'x, z, y'
loop_
 _atom_site_type_symbol
 _atom_site_label
 _atom_site_symmetry_multiplicity
 _atom_site_fract_x
 _atom_site_fract_y
 _atom_site_fract_z
 _atom_site_occupancy
  V  V0  2  0.00000000  0.29575700  0.29575700  1.0
  Ir  Ir1  2  0.50000000  0.21641200  0.78358800  1.0
