# generated using pymatgen
data_VIr
_symmetry_space_group_name_H-M   Cmmm
_cell_length_a   3.96763100
_cell_length_b   5.30869908
_cell_length_c   5.30869908
_cell_angle_alpha   94.37626903
_cell_angle_beta   90.00000000
_cell_angle_gamma   90.00000000
_symmetry_Int_Tables_number   65
_chemical_formula_structural   VIr
_chemical_formula_sum   'V4 Ir4'
_cell_volume   111.49090264
_cell_formula_units_Z   4
loop_
 _symmetry_equiv_pos_site_id
 _symmetry_equiv_pos_as_xyz
  1  'x, y, z'
  2  '-x, -y, -z'
  3  'x, -y, -z'
  4  '-x, y, z'
  5  '-x, z, y'
  6  'x, -z, -y'
  7  '-x, -z, -y'
  8  'x, z, y'
loop_
 _atom_site_type_symbol
 _atom_site_label
 _atom_site_symmetry_multiplicity
 _atom_site_fract_x
 _atom_site_fract_y
 _atom_site_fract_z
 _atom_site_occupancy
  V  V0  2  0.50000000  0.21769000  0.78231000  1.0
  V  V1  1  0.00000000  0.00000000  0.00000000  1.0
  V  V2  1  0.00000000  0.50000000  0.50000000  1.0
  Ir  Ir3  2  0.00000000  0.00000000  0.50000000  1.0
  Ir  Ir4  2  0.50000000  0.27343600  0.27343600  1.0
