# generated using pymatgen
data_VIr
_symmetry_space_group_name_H-M   Cmcm
_cell_length_a   6.63669232
_cell_length_b   6.63669232
_cell_length_c   11.10078500
_cell_angle_alpha   90.00000000
_cell_angle_beta   90.00000000
_cell_angle_gamma   114.33698276
_symmetry_Int_Tables_number   63
_chemical_formula_structural   VIr
_chemical_formula_sum   'V16 Ir16'
_cell_volume   445.49308237
_cell_formula_units_Z   16
loop_
 _symmetry_equiv_pos_site_id
 _symmetry_equiv_pos_as_xyz
  1  'x, y, z'
  2  '-x, -y, -z'
  3  '-x, -y, z+1/2'
  4  'x, y, -z+1/2'
  5  'y, x, -z'
  6  '-y, -x, z'
  7  '-y, -x, -z+1/2'
  8  'y, x, z+1/2'
loop_
 _atom_site_type_symbol
 _atom_site_label
 _atom_site_symmetry_multiplicity
 _atom_site_fract_x
 _atom_site_fract_y
 _atom_site_fract_z
 _atom_site_occupancy
  V  V0  4  0.10515500  0.89484500  0.61670800  1.0
  V  V1  4  0.12310400  0.87689600  0.13185800  1.0
  V  V2  4  0.35809100  0.64190900  0.13374100  1.0
  V  V3  4  0.36824900  0.63175100  0.61688200  1.0
  Ir  Ir4  4  0.00000000  0.50000000  0.00000000  1.0
  Ir  Ir5  4  0.01884700  0.52692200  0.75000000  1.0
  Ir  Ir6  4  0.26577500  0.27019100  0.75000000  1.0
  Ir  Ir7  4  0.26909100  0.26909100  0.00000000  1.0
