# generated using pymatgen
data_Y4Ir
_symmetry_space_group_name_H-M   Pnma
_cell_length_a   6.43188900
_cell_length_b   7.28632600
_cell_length_c   9.27204500
_cell_angle_alpha   90.00000000
_cell_angle_beta   90.00000000
_cell_angle_gamma   90.00000000
_symmetry_Int_Tables_number   62
_chemical_formula_structural   Y4Ir
_chemical_formula_sum   'Y12 Ir3'
_cell_volume   434.53290586
_cell_formula_units_Z   3
loop_
 _symmetry_equiv_pos_site_id
 _symmetry_equiv_pos_as_xyz
  1  'x, y, z'
  2  '-x, -y, -z'
  3  'x+1/2, -y+1/2, -z'
  4  '-x+1/2, y+1/2, z'
  5  '-x+1/2, y+1/2, -z+1/2'
  6  'x+1/2, -y+1/2, z+1/2'
  7  '-x, -y, z+1/2'
  8  'x, y, -z+1/2'
loop_
 _atom_site_type_symbol
 _atom_site_label
 _atom_site_symmetry_multiplicity
 _atom_site_fract_x
 _atom_site_fract_y
 _atom_site_fract_z
 _atom_site_occupancy
  Y  Y0  8  0.17221100  0.17711700  0.06341000  1.0
  Y  Y1  4  0.13137600  0.46381700  0.75000000  1.0
  Ir  Ir2  4  0.04314600  0.88331400  0.25000000  0.75
