# generated using pymatgen
data_Y3Ir2
_symmetry_space_group_name_H-M   I4/mcm
_cell_length_a   11.30249200
_cell_length_b   11.30249200
_cell_length_c   14.95423560
_cell_angle_alpha   112.20383139
_cell_angle_beta   112.20383140
_cell_angle_gamma   90.00000000
_symmetry_Int_Tables_number   140
_chemical_formula_structural   Y3Ir2
_chemical_formula_sum   'Y42 Ir28'
_cell_volume   1614.64482577
_cell_formula_units_Z   14
loop_
 _symmetry_equiv_pos_site_id
 _symmetry_equiv_pos_as_xyz
  1  'x, y, z'
  2  '-x, -y, -z'
  3  '-y+z, x, z'
  4  'y-z, -x, -z'
  5  '-x+z, -y+z, z'
  6  'x-z, y-z, -z'
  7  'y, -x+z, z'
  8  '-y, x-z, -z'
  9  'x-z+1/2, -y+1/2, -z'
  10  '-x+z+1/2, y+1/2, z'
  11  '-y+1/2, -x+1/2, -z'
  12  'y+1/2, x+1/2, z'
  13  '-x+1/2, y-z+1/2, -z'
  14  'x+1/2, -y+z+1/2, z'
  15  'y-z+1/2, x-z+1/2, -z'
  16  '-y+z+1/2, -x+z+1/2, z'
loop_
 _atom_site_type_symbol
 _atom_site_label
 _atom_site_symmetry_multiplicity
 _atom_site_fract_x
 _atom_site_fract_y
 _atom_site_fract_z
 _atom_site_occupancy
  Y  Y0  16  0.00357900  0.72426900  0.85646000  1.0
  Y  Y1  16  0.01705700  0.72641800  0.61216300  1.0
  Y  Y2  4  0.11252700  0.61252700  0.22505400  1.0
  Y  Y3  4  0.14925900  0.35074000  0.99999900  1.0
  Y  Y4  2  0.25000000  0.75000000  0.50000000  1.0
  Ir  Ir5  8  0.03463800  0.53463800  0.37737400  1.0
  Ir  Ir6  8  0.07316200  0.21434100  0.78750300  1.0
  Ir  Ir7  4  0.09654100  0.59654100  0.00000000  1.0
  Ir  Ir8  4  0.13437100  0.13437100  0.26874200  1.0
  Ir  Ir9  2  0.00000000  0.00000000  0.00000000  1.0
  Ir  Ir10  2  0.25000000  0.25000000  0.50000000  1.0
