# generated using pymatgen
data_Tb2Si5Ir3
_symmetry_space_group_name_H-M   Ibam
_cell_length_a   5.84559200
_cell_length_b   8.15406364
_cell_length_c   8.15406364
_cell_angle_alpha   75.46828370
_cell_angle_beta   68.99517591
_cell_angle_gamma   68.99517590
_symmetry_Int_Tables_number   72
_chemical_formula_structural   Tb2Si5Ir3
_chemical_formula_sum   'Tb4 Si10 Ir6'
_cell_volume   335.36970131
_cell_formula_units_Z   2
loop_
 _symmetry_equiv_pos_site_id
 _symmetry_equiv_pos_as_xyz
  1  'x, y, z'
  2  '-x, -y, -z'
  3  'x+y+z, -y, -z'
  4  '-x-y-z, y, z'
  5  '-x+1/2, -z, -y'
  6  'x+1/2, z, y'
  7  '-x-y-z+1/2, z, y'
  8  'x+y+z+1/2, -z, -y'
loop_
 _atom_site_type_symbol
 _atom_site_label
 _atom_site_symmetry_multiplicity
 _atom_site_fract_x
 _atom_site_fract_y
 _atom_site_fract_z
 _atom_site_occupancy
  Tb  Tb0  4  0.13093300  0.59845600  0.13967800  1.0
  Si  Si1  4  0.02445600  0.22554400  0.22554400  1.0
  Si  Si2  4  0.10588900  0.04982800  0.73839500  1.0
  Si  Si3  2  0.25000000  0.50000000  0.50000000  1.0
  Ir  Ir4  4  0.13984700  0.24703500  0.47327000  1.0
  Ir  Ir5  2  0.25000000  0.00000000  0.00000000  1.0
