# generated using pymatgen
data_Zr5Ir3
_symmetry_space_group_name_H-M   P6_122
_cell_length_a   7.99020201
_cell_length_b   7.99020208
_cell_length_c   17.22553800
_cell_angle_alpha   90.00000000
_cell_angle_beta   90.00000000
_cell_angle_gamma   119.99999969
_symmetry_Int_Tables_number   178
_chemical_formula_structural   Zr5Ir3
_chemical_formula_sum   'Zr30 Ir18'
_cell_volume   952.39904356
_cell_formula_units_Z   6
loop_
 _symmetry_equiv_pos_site_id
 _symmetry_equiv_pos_as_xyz
  1  'x, y, z'
  2  'x-y, x, z+1/6'
  3  '-y, x-y, z+1/3'
  4  '-x, -y, z+1/2'
  5  '-x+y, -x, z+2/3'
  6  'y, -x+y, z+5/6'
  7  '-y, -x, -z+1/2'
  8  '-x, -x+y, -z+1/3'
  9  '-x+y, y, -z+1/6'
  10  'y, x, -z'
  11  'x, x-y, -z+5/6'
  12  'x-y, -y, -z+2/3'
loop_
 _atom_site_type_symbol
 _atom_site_label
 _atom_site_symmetry_multiplicity
 _atom_site_fract_x
 _atom_site_fract_y
 _atom_site_fract_z
 _atom_site_occupancy
  Zr  Zr0  12  0.00671600  0.23771900  0.32637000  1.0
  Zr  Zr1  6  0.00000000  0.24817700  0.66666667  1.0
  Zr  Zr2  6  0.25166200  0.62583100  0.91666700  1.0
  Zr  Zr3  6  0.30772600  0.65386300  0.41666700  1.0
  Ir  Ir4  12  0.01921400  0.41314500  0.52322600  1.0
  Ir  Ir5  6  0.00000000  0.38544300  0.16666700  1.0
