# generated using pymatgen
data_Yb5(Si5Ir2)2
_symmetry_space_group_name_H-M   P4/mbm
_cell_length_a   4.30154400
_cell_length_b   12.62069800
_cell_length_c   12.62069800
_cell_angle_alpha   90.00000000
_cell_angle_beta   90.00000000
_cell_angle_gamma   90.00000000
_symmetry_Int_Tables_number   127
_chemical_formula_structural   Yb5(Si5Ir2)2
_chemical_formula_sum   'Yb10 Si20 Ir8'
_cell_volume   685.15860887
_cell_formula_units_Z   2
loop_
 _symmetry_equiv_pos_site_id
 _symmetry_equiv_pos_as_xyz
  1  'x, y, z'
  2  '-x, -y, -z'
  3  'x, -z, y'
  4  '-x, z, -y'
  5  'x, -y, -z'
  6  '-x, y, z'
  7  'x, z, -y'
  8  '-x, -z, y'
  9  '-x, y+1/2, -z+1/2'
  10  'x, -y+1/2, z+1/2'
  11  '-x, -z+1/2, -y+1/2'
  12  'x, z+1/2, y+1/2'
  13  '-x, -y+1/2, z+1/2'
  14  'x, y+1/2, -z+1/2'
  15  '-x, z+1/2, y+1/2'
  16  'x, -z+1/2, -y+1/2'
loop_
 _atom_site_type_symbol
 _atom_site_label
 _atom_site_symmetry_multiplicity
 _atom_site_fract_x
 _atom_site_fract_y
 _atom_site_fract_z
 _atom_site_occupancy
  Yb  Yb0  4  0.50000000  0.11307500  0.61307500  1.0
  Yb  Yb1  4  0.50000000  0.17338600  0.32661400  1.0
  Yb  Yb2  2  0.00000000  0.00000000  0.00000000  1.0
  Si  Si3  8  0.00000000  0.16329300  0.80276700  1.0
  Si  Si4  8  0.50000000  0.00308100  0.15149700  1.0
  Si  Si5  4  0.00000000  0.06664500  0.43335500  1.0
  Ir  Ir6  8  0.00000000  0.01791600  0.24544400  1.0
