# generated using pymatgen
data_K0.81W3O9
_symmetry_space_group_name_H-M   P6mm
_cell_length_a   3.88328500
_cell_length_b   7.52043600
_cell_length_c   7.52043633
_cell_angle_alpha   119.99999856
_cell_angle_beta   90.00000000
_cell_angle_gamma   90.00000000
_symmetry_Int_Tables_number   183
_chemical_formula_structural   K0.81W3O9
_chemical_formula_sum   'K0.81 W3 O9'
_cell_volume   190.20238645
_cell_formula_units_Z   1
loop_
 _symmetry_equiv_pos_site_id
 _symmetry_equiv_pos_as_xyz
  1  'x, y, z'
  2  'x, y-z, y'
  3  'x, -z, y-z'
  4  'x, -y, -z'
  5  'x, -y+z, -y'
  6  'x, z, -y+z'
  7  'x, -y, -y+z'
  8  'x, -y+z, z'
  9  'x, z, y'
  10  'x, y, y-z'
  11  'x, y-z, -z'
  12  'x, -z, -y'
loop_
 _atom_site_type_symbol
 _atom_site_label
 _atom_site_symmetry_multiplicity
 _atom_site_fract_x
 _atom_site_fract_y
 _atom_site_fract_z
 _atom_site_occupancy
  K  K0  1  0.09985300  0.00000000  0.00000000  0.81
  W  W1  3  0.50075100  0.00000000  0.50000000  1.0
  O  O2  6  0.49958100  0.21012000  0.78987900  1.0
  O  O3  3  0.00013700  0.00000000  0.50000000  1.0
