# generated using pymatgen
data_K0.81W3O9
_symmetry_space_group_name_H-M   P6mm
_cell_length_a   3.87168050
_cell_length_b   7.51019800
_cell_length_c   7.51019778
_cell_angle_alpha   120.00000098
_cell_angle_beta   90.00000000
_cell_angle_gamma   90.00000000
_symmetry_Int_Tables_number   183
_chemical_formula_structural   K0.81W3O9
_chemical_formula_sum   'K0.81 W3 O9'
_cell_volume   189.11801453
_cell_formula_units_Z   1
loop_
 _symmetry_equiv_pos_site_id
 _symmetry_equiv_pos_as_xyz
  1  'x, y, z'
  2  'x, y-z, y'
  3  'x, -z, y-z'
  4  'x, -y, -z'
  5  'x, -y+z, -y'
  6  'x, z, -y+z'
  7  'x, y-z, -z'
  8  'x, -z, -y'
  9  'x, -y, -y+z'
  10  'x, -y+z, z'
  11  'x, z, y'
  12  'x, y, y-z'
loop_
 _atom_site_type_symbol
 _atom_site_label
 _atom_site_symmetry_multiplicity
 _atom_site_fract_x
 _atom_site_fract_y
 _atom_site_fract_z
 _atom_site_occupancy
  K  K0  1  0.46561000  0.00000000  0.00000000  0.81
  W  W1  3  0.99966200  0.00000000  0.50000000  1.0
  O  O2  6  0.00023100  0.20955850  0.79044150  1.0
  O  O3  3  0.49952800  0.00000000  0.50000000  1.0
