# generated using pymatgen
data_K3(MoO3)10
_symmetry_space_group_name_H-M   P-1
_cell_length_a   9.55653511
_cell_length_b   9.68994460
_cell_length_c   9.74779009
_cell_angle_alpha   111.93597159
_cell_angle_beta   100.82853056
_cell_angle_gamma   110.15704840
_symmetry_Int_Tables_number   2
_chemical_formula_structural   K3(MoO3)10
_chemical_formula_sum   'K3 Mo10 O30'
_cell_volume   732.23846157
_cell_formula_units_Z   1
loop_
 _symmetry_equiv_pos_site_id
 _symmetry_equiv_pos_as_xyz
  1  'x, y, z'
  2  '-x, -y, -z'
loop_
 _atom_site_type_symbol
 _atom_site_label
 _atom_site_symmetry_multiplicity
 _atom_site_fract_x
 _atom_site_fract_y
 _atom_site_fract_z
 _atom_site_occupancy
  K  K0  2  0.34357700  0.74791400  0.27666100  1.0
  K  K1  1  0.00000000  0.50000000  0.50000000  1.0
  Mo  Mo2  2  0.01213500  0.78851400  0.96311900  1.0
  Mo  Mo3  2  0.17882700  0.92452300  0.68524000  1.0
  Mo  Mo4  2  0.23791700  0.08950500  0.39726300  1.0
  Mo  Mo5  2  0.34061600  0.42263500  0.80018900  1.0
  Mo  Mo6  2  0.48040200  0.78118000  0.70129000  1.0
  O  O7  2  0.03600600  0.11820700  0.38052200  1.0
  O  O8  2  0.08183900  0.42901300  0.11099400  1.0
  O  O9  2  0.11737800  0.82220700  0.82662000  1.0
  O  O10  2  0.13854900  0.15213800  0.04803300  1.0
  O  O11  2  0.14710800  0.33291800  0.79023600  1.0
  O  O12  2  0.14786400  0.89676400  0.17791900  1.0
  O  O13  2  0.19119100  0.95875200  0.50050100  1.0
  O  O14  2  0.25962800  0.76552300  0.61331100  1.0
  O  O15  2  0.32121900  0.12519900  0.82538600  1.0
  O  O16  2  0.34701200  0.27944600  0.35488900  1.0
  O  O17  2  0.35847200  0.59385000  0.76218000  1.0
  O  O18  2  0.36607300  0.28506900  0.63536200  1.0
  O  O19  2  0.43521300  0.06881700  0.10494700  1.0
  O  O20  2  0.45174100  0.08986900  0.40817300  1.0
  O  O21  1  0.50000000  0.50000000  0.00000000  1.0
  O  O22  1  0.50000000  0.50000000  0.50000000  1.0
