# generated using pymatgen
data_K9(WO3)20
_symmetry_space_group_name_H-M   P-1
_cell_length_a   7.84079409
_cell_length_b   13.13125476
_cell_length_c   13.14702162
_cell_angle_alpha   84.72324997
_cell_angle_beta   72.64131611
_cell_angle_gamma   72.64419184
_symmetry_Int_Tables_number   2
_chemical_formula_structural   K9(WO3)20
_chemical_formula_sum   'K9 W20 O60'
_cell_volume   1233.13246891
_cell_formula_units_Z   1
loop_
 _symmetry_equiv_pos_site_id
 _symmetry_equiv_pos_as_xyz
  1  'x, y, z'
  2  '-x, -y, -z'
loop_
 _atom_site_type_symbol
 _atom_site_label
 _atom_site_symmetry_multiplicity
 _atom_site_fract_x
 _atom_site_fract_y
 _atom_site_fract_z
 _atom_site_occupancy
  K  K0  2  0.07704100  0.67374400  0.17223000  1.0
  K  K1  2  0.24941000  0.82700300  0.67417500  1.0
  K  K2  2  0.25054400  0.17266900  0.32588700  1.0
  K  K3  2  0.42326900  0.32620800  0.82743900  1.0
  K  K4  1  0.50000000  0.50000000  0.50000000  1.0
  W  W5  2  0.10621700  0.57582600  0.70869200  1.0
  W  W6  2  0.10833400  0.20745400  0.07591200  1.0
  W  W7  2  0.18207200  0.70873400  0.42412700  1.0
  W  W8  2  0.18417600  0.92508600  0.20657300  1.0
  W  W9  2  0.31456800  0.29147700  0.57547000  1.0
  W  W10  2  0.31609500  0.07411500  0.79364800  1.0
  W  W11  2  0.39016600  0.79343800  0.92625700  1.0
  W  W12  2  0.39222200  0.42310200  0.28860600  1.0
  W  W13  1  0.00000000  0.00000000  0.50000000  1.0
  W  W14  1  0.00000000  0.50000000  0.00000000  1.0
  W  W15  1  0.50000000  0.00000000  0.50000000  1.0
  W  W16  1  0.50000000  0.50000000  0.00000000  1.0
  O  O17  2  0.00334500  0.28493600  0.20881200  1.0
  O  O18  2  0.06798600  0.07425300  0.79218000  1.0
  O  O19  2  0.07282500  0.29019900  0.57627900  1.0
  O  O20  2  0.07707500  0.84429000  0.50082300  1.0
  O  O21  2  0.07721200  0.00069700  0.34497700  1.0
  O  O22  2  0.07797300  0.34523500  0.99875900  1.0
  O  O23  2  0.07811500  0.49885100  0.84421300  1.0
  O  O24  2  0.13489300  0.79291200  0.92569700  1.0
  O  O25  2  0.14232400  0.64268400  0.57339200  1.0
  O  O26  2  0.14291800  0.06976500  0.14437400  1.0
  O  O27  2  0.14872700  0.42378600  0.29147400  1.0
  O  O28  2  0.21137000  0.79170600  0.28500800  1.0
  O  O29  2  0.21402400  0.14407800  0.92790900  1.0
  O  O30  2  0.21611200  0.42628300  0.64281100  1.0
  O  O31  2  0.24351300  0.49997700  0.99980500  1.0
  O  O32  2  0.25032500  0.99980200  0.50001600  1.0
  O  O33  2  0.28467700  0.85750400  0.07312900  1.0
  O  O34  2  0.28579600  0.57189100  0.35725500  1.0
  O  O35  2  0.28900100  0.20977600  0.71202600  1.0
  O  O36  2  0.35360900  0.20701100  0.07423600  1.0
  O  O37  2  0.35694800  0.93020100  0.85586300  1.0
  O  O38  2  0.35760400  0.35600800  0.42997600  1.0
  O  O39  2  0.36530700  0.57524300  0.70717500  1.0
  O  O40  2  0.41952600  0.50160500  0.15863400  1.0
  O  O41  2  0.42257500  0.65443900  0.00043100  1.0
  O  O42  2  0.42260300  0.99969500  0.65516100  1.0
  O  O43  2  0.42293700  0.15463500  0.49874600  1.0
  O  O44  2  0.43440300  0.92568400  0.20788200  1.0
  O  O45  2  0.43942100  0.70849200  0.42466700  1.0
  O  O46  2  0.49871800  0.28947800  0.21292700  1.0
