# generated using pymatgen
data_K1.8Re2O6
_symmetry_space_group_name_H-M   I4_1/a
_cell_length_a   5.82923200
_cell_length_b   5.82923200
_cell_length_c   7.68772256
_cell_angle_alpha   112.27955959
_cell_angle_beta   112.27955959
_cell_angle_gamma   90.00000000
_symmetry_Int_Tables_number   88
_chemical_formula_structural   K1.8Re2O6
_chemical_formula_sum   'K1.8 Re2 O6'
_cell_volume   220.50629948
_cell_formula_units_Z   1
loop_
 _symmetry_equiv_pos_site_id
 _symmetry_equiv_pos_as_xyz
  1  'x, y, z'
  2  '-y+z+3/4, x+1/4, z+1/2'
  3  '-x+z, -y+z, z'
  4  'y+3/4, -x+z+1/4, z+1/2'
  5  '-x+3/4, -y+1/4, -z+1/2'
  6  'y-z, -x, -z'
  7  'x-z+3/4, y-z+1/4, -z+1/2'
  8  '-y, x-z, -z'
loop_
 _atom_site_type_symbol
 _atom_site_label
 _atom_site_symmetry_multiplicity
 _atom_site_fract_x
 _atom_site_fract_y
 _atom_site_fract_z
 _atom_site_occupancy
  K  K0  2  0.25000000  0.75000000  0.50000000  0.9
  Re  Re1  2  0.00000000  0.00000000  0.00000000  1.0
  O  O2  8  0.04556100  0.21017400  0.65409500  0.75
