# generated using pymatgen
data_K
_symmetry_space_group_name_H-M   Immm
_cell_length_a   4.53539200
_cell_length_b   4.67478206
_cell_length_c   4.67478206
_cell_angle_alpha   65.48746038
_cell_angle_beta   60.98154719
_cell_angle_gamma   60.98154719
_symmetry_Int_Tables_number   71
_chemical_formula_structural   K
_chemical_formula_sum   K1
_cell_volume   73.67199923
_cell_formula_units_Z   1
loop_
 _symmetry_equiv_pos_site_id
 _symmetry_equiv_pos_as_xyz
  1  'x, y, z'
  2  '-x, -y, -z'
  3  '-x-y-z, z, y'
  4  'x+y+z, -z, -y'
  5  'x+y+z, -y, -z'
  6  '-x-y-z, y, z'
  7  '-x, -z, -y'
  8  'x, z, y'
loop_
 _atom_site_type_symbol
 _atom_site_label
 _atom_site_symmetry_multiplicity
 _atom_site_fract_x
 _atom_site_fract_y
 _atom_site_fract_z
 _atom_site_occupancy
  K  K0  1  0.50000000  0.50000000  0.50000000  1.0
