# generated using pymatgen
data_K
_symmetry_space_group_name_H-M   Cmmm
_cell_length_a   7.88552477
_cell_length_b   7.88552477
_cell_length_c   8.65912000
_cell_angle_alpha   90.00000000
_cell_angle_beta   90.00000000
_cell_angle_gamma   111.11706752
_symmetry_Int_Tables_number   65
_chemical_formula_structural   K
_chemical_formula_sum   K5
_cell_volume   502.27901236
_cell_formula_units_Z   5
loop_
 _symmetry_equiv_pos_site_id
 _symmetry_equiv_pos_as_xyz
  1  'x, y, z'
  2  '-x, -y, -z'
  3  '-x, -y, z'
  4  'x, y, -z'
  5  'y, x, -z'
  6  '-y, -x, z'
  7  '-y, -x, -z'
  8  'y, x, z'
loop_
 _atom_site_type_symbol
 _atom_site_label
 _atom_site_symmetry_multiplicity
 _atom_site_fract_x
 _atom_site_fract_y
 _atom_site_fract_z
 _atom_site_occupancy
  K  K0  4  0.00000000  0.50000000  0.25270900  1.0
  K  K1  1  0.00000000  0.00000000  0.00000000  1.0
