# generated using pymatgen
data_K
_symmetry_space_group_name_H-M   Im-3
_cell_length_a   20.08363423
_cell_length_b   20.08363423
_cell_length_c   20.08363423
_cell_angle_alpha   109.47122063
_cell_angle_beta   109.47122064
_cell_angle_gamma   109.47122064
_symmetry_Int_Tables_number   204
_chemical_formula_structural   K
_chemical_formula_sum   K81
_cell_volume   6235.98438414
_cell_formula_units_Z   81
loop_
 _symmetry_equiv_pos_site_id
 _symmetry_equiv_pos_as_xyz
  1  'x, y, z'
  2  '-x, -y, -z'
  3  'y-z, x-z, -z'
  4  '-y+z, -x+z, z'
  5  '-y+z, -y, x-y'
  6  'y-z, y, -x+y'
  7  '-x, -x+z, -x+y'
  8  'x, x-z, x-y'
  9  '-y, x-y, -y+z'
  10  'y, -x+y, y-z'
  11  '-x+z, -x+y, -x'
  12  'x-z, x-y, x'
  13  'y, z, x'
  14  '-y, -z, -x'
  15  'x-z, -z, y-z'
  16  '-x+z, z, -y+z'
  17  '-x+y, -x, -x+z'
  18  'x-y, x, x-z'
  19  'x-y, -y+z, -y'
  20  '-x+y, y-z, y'
  21  '-z, y-z, x-z'
  22  'z, -y+z, -x+z'
  23  'z, x, y'
  24  '-z, -x, -y'
loop_
 _atom_site_type_symbol
 _atom_site_label
 _atom_site_symmetry_multiplicity
 _atom_site_fract_x
 _atom_site_fract_y
 _atom_site_fract_z
 _atom_site_occupancy
  K  K0  24  0.03570720  0.24729535  0.59268942  1.0
  K  K1  12  0.06082563  0.90209168  0.15873395  1.0
  K  K2  12  0.12282254  0.81477735  0.30804519  1.0
  K  K3  12  0.12755715  0.42983418  0.30227703  1.0
  K  K4  8  0.00000000  0.00000000  0.37244453  1.0
  K  K5  6  0.09994881  0.50000000  0.59994881  1.0
  K  K6  6  0.19743517  0.69743517  0.50000000  1.0
  K  K7  1  0.00000000  0.00000000  0.00000000  1.0
