# generated using pymatgen
data_K
_symmetry_space_group_name_H-M   I4/mcm
_cell_length_a   7.55592600
_cell_length_b   10.91170825
_cell_length_c   10.91170825
_cell_angle_alpha   83.11509094
_cell_angle_beta   69.74308976
_cell_angle_gamma   69.74308977
_symmetry_Int_Tables_number   140
_chemical_formula_structural   K
_chemical_formula_sum   K8
_cell_volume   791.80341203
_cell_formula_units_Z   8
loop_
 _symmetry_equiv_pos_site_id
 _symmetry_equiv_pos_as_xyz
  1  'x, y, z'
  2  '-x, -y, -z'
  3  'x+y, z, -y'
  4  '-x-y, -z, y'
  5  'x+y+z, -y, -z'
  6  '-x-y-z, y, z'
  7  'x+z, -z, y'
  8  '-x-z, z, -y'
  9  '-x+1/2, -z, -y'
  10  'x+1/2, z, y'
  11  '-x-y+1/2, y, -z'
  12  'x+y+1/2, -y, z'
  13  '-x-y-z+1/2, z, y'
  14  'x+y+z+1/2, -z, -y'
  15  '-x-z+1/2, -y, z'
  16  'x+z+1/2, y, -z'
loop_
 _atom_site_type_symbol
 _atom_site_label
 _atom_site_symmetry_multiplicity
 _atom_site_fract_x
 _atom_site_fract_y
 _atom_site_fract_z
 _atom_site_occupancy
  K  K0  8  0.08277600  0.71586500  0.11858300  1.0
