# generated using pymatgen
data_K(NiSe)2
_symmetry_space_group_name_H-M   Fddd
_cell_length_a   6.07699800
_cell_length_b   6.09980022
_cell_length_c   13.67595478
_cell_angle_alpha   83.64583984
_cell_angle_beta   77.16299866
_cell_angle_gamma   60.12358152
_symmetry_Int_Tables_number   70
_chemical_formula_structural   K(NiSe)2
_chemical_formula_sum   'K3 Ni6 Se6'
_cell_volume   428.58778682
_cell_formula_units_Z   3
loop_
 _symmetry_equiv_pos_site_id
 _symmetry_equiv_pos_as_xyz
  1  'x, y, z'
  2  '-x-z, -y, z'
  3  'x+y+z, -y, -z'
  4  '-x-y, y, -z'
  5  '-x+3/4, -y+1/2, -z+1/2'
  6  'x+z+3/4, y+1/2, -z+1/2'
  7  '-x-y-z+3/4, y+1/2, z+1/2'
  8  'x+y+3/4, -y+1/2, z+1/2'
loop_
 _atom_site_type_symbol
 _atom_site_label
 _atom_site_symmetry_multiplicity
 _atom_site_fract_x
 _atom_site_fract_y
 _atom_site_fract_z
 _atom_site_occupancy
  K  K0  4  0.07613200  0.00000000  0.84773600  0.75
  Ni  Ni1  4  0.00036200  0.50000000  0.99927600  1.0
  Ni  Ni2  2  0.25000000  0.50000000  0.50000000  1.0
  Se  Se3  8  0.02742100  0.83309800  0.61651700  0.75
