# generated using pymatgen
data_K(OsO3)2
_symmetry_space_group_name_H-M   P-1
_cell_length_a   5.68626100
_cell_length_b   6.52279870
_cell_length_c   7.35605874
_cell_angle_alpha   65.48243867
_cell_angle_beta   70.50012282
_cell_angle_gamma   75.77238739
_symmetry_Int_Tables_number   2
_chemical_formula_structural   K(OsO3)2
_chemical_formula_sum   'K2 Os4 O12'
_cell_volume   232.16256991
_cell_formula_units_Z   2
loop_
 _symmetry_equiv_pos_site_id
 _symmetry_equiv_pos_as_xyz
  1  'x, y, z'
  2  '-x, -y, -z'
loop_
 _atom_site_type_symbol
 _atom_site_label
 _atom_site_symmetry_multiplicity
 _atom_site_fract_x
 _atom_site_fract_y
 _atom_site_fract_z
 _atom_site_occupancy
  K  K0  2  0.19266300  0.70113300  0.89022700  1.0
  Os  Os1  2  0.18453500  0.35748200  0.45329900  1.0
  Os  Os2  2  0.36656500  0.91246000  0.23668800  1.0
  O  O3  2  0.01455400  0.89026100  0.37400300  1.0
  O  O4  2  0.09943200  0.47974300  0.67441800  1.0
  O  O5  2  0.30117000  0.21708700  0.23948200  1.0
  O  O6  2  0.30338600  0.03948000  0.96266700  1.0
  O  O7  2  0.37649700  0.60822400  0.26057600  1.0
  O  O8  2  0.48474300  0.18859900  0.54083400  1.0
