# generated using pymatgen
data_K(V3S4)2
_symmetry_space_group_name_H-M   P-3
_cell_length_a   3.26194700
_cell_length_b   9.19626018
_cell_length_c   9.20436364
_cell_angle_alpha   60.02596557
_cell_angle_beta   90.00087856
_cell_angle_gamma   90.00351066
_symmetry_Int_Tables_number   147
_chemical_formula_structural   K(V3S4)2
_chemical_formula_sum   'K1 V6 S8'
_cell_volume   239.18069375
_cell_formula_units_Z   1
loop_
 _symmetry_equiv_pos_site_id
 _symmetry_equiv_pos_as_xyz
  1  'x, y, z'
  2  '-x, -y, -z'
  3  'x, -y-z, y'
  4  '-x, y+z, -y'
  5  'x, z, -y-z'
  6  '-x, -z, y+z'
loop_
 _atom_site_type_symbol
 _atom_site_label
 _atom_site_symmetry_multiplicity
 _atom_site_fract_x
 _atom_site_fract_y
 _atom_site_fract_z
 _atom_site_occupancy
  K  K0  1  0.50000000  0.00000000  0.00000000  1.0
  V  V1  6  0.25124800  0.11560700  0.37503200  1.0
  S  S2  6  0.24668800  0.05035700  0.65300700  1.0
  S  S3  2  0.24920600  0.66666667  0.66666667  1.0
