# generated using pymatgen
data_K2Mo15Se19
_symmetry_space_group_name_H-M   R-3c
_cell_length_a   9.90142855
_cell_length_b   9.90142855
_cell_length_c   20.37434670
_cell_angle_alpha   75.93705885
_cell_angle_beta   75.93705885
_cell_angle_gamma   59.99999952
_symmetry_Int_Tables_number   167
_chemical_formula_structural   K2Mo15Se19
_chemical_formula_sum   'K4 Mo30 Se38'
_cell_volume   1660.37015025
_cell_formula_units_Z   2
loop_
 _symmetry_equiv_pos_site_id
 _symmetry_equiv_pos_as_xyz
  1  'x, y, z'
  2  '-x, -y, -z'
  3  '-x-y-z, x, z'
  4  'x+y+z, -x, -z'
  5  'y, -x-y-z, z'
  6  '-y, x+y+z, -z'
  7  '-x+1/2, x+y+z+1/2, -z+1/2'
  8  'x+1/2, -x-y-z+1/2, z+1/2'
  9  'x+y+z+1/2, -y+1/2, -z+1/2'
  10  '-x-y-z+1/2, y+1/2, z+1/2'
  11  '-y+1/2, -x+1/2, -z+1/2'
  12  'y+1/2, x+1/2, z+1/2'
loop_
 _atom_site_type_symbol
 _atom_site_label
 _atom_site_symmetry_multiplicity
 _atom_site_fract_x
 _atom_site_fract_y
 _atom_site_fract_z
 _atom_site_occupancy
  K  K0  4  0.11476420  0.11476420  0.65570740  1.0
  Mo  Mo1  12  0.00225515  0.81377327  0.05832053  1.0
  Mo  Mo2  12  0.04990142  0.22264263  0.36765922  1.0
  Mo  Mo3  6  0.09263518  0.40736482  0.25000000  1.0
  Se  Se4  12  0.03085452  0.42231144  0.85733039  1.0
  Se  Se5  12  0.05480407  0.69419158  0.95010578  1.0
  Se  Se6  6  0.05385489  0.75000000  0.75000000  1.0
  Se  Se7  4  0.05412394  0.05412394  0.83762819  1.0
  Se  Se8  4  0.17606590  0.17606590  0.47180230  1.0
