# generated using pymatgen
data_K2Te3
_symmetry_space_group_name_H-M   Pnma
_cell_length_a   4.61694600
_cell_length_b   10.41162100
_cell_length_c   16.04268100
_cell_angle_alpha   90.00000000
_cell_angle_beta   90.00000000
_cell_angle_gamma   90.00000000
_symmetry_Int_Tables_number   62
_chemical_formula_structural   K2Te3
_chemical_formula_sum   'K8 Te12'
_cell_volume   771.16994193
_cell_formula_units_Z   4
loop_
 _symmetry_equiv_pos_site_id
 _symmetry_equiv_pos_as_xyz
  1  'x, y, z'
  2  '-x, -y, -z'
  3  'x+1/2, -y, -z+1/2'
  4  '-x+1/2, y, z+1/2'
  5  '-x+1/2, -y+1/2, z+1/2'
  6  'x+1/2, y+1/2, -z+1/2'
  7  '-x, y+1/2, -z'
  8  'x, -y+1/2, z'
loop_
 _atom_site_type_symbol
 _atom_site_label
 _atom_site_symmetry_multiplicity
 _atom_site_fract_x
 _atom_site_fract_y
 _atom_site_fract_z
 _atom_site_occupancy
  K  K0  8  0.22408700  0.02808100  0.12344400  1.0
  Te  Te1  4  0.19603000  0.75000000  0.48276000  1.0
  Te  Te2  4  0.19658400  0.25000000  0.37681000  1.0
  Te  Te3  4  0.20517600  0.75000000  0.76146000  1.0
