# generated using pymatgen
data_Sr0.4La3.6Rh4O12
_symmetry_space_group_name_H-M   Pnma
_cell_length_a   5.52133000
_cell_length_b   5.87862700
_cell_length_c   7.94544400
_cell_angle_alpha   90.00000000
_cell_angle_beta   90.00000000
_cell_angle_gamma   90.00000000
_symmetry_Int_Tables_number   62
_chemical_formula_structural   Sr0.4La3.6Rh4O12
_chemical_formula_sum   'Sr0.4 La3.6 Rh4 O12'
_cell_volume   257.89194701
_cell_formula_units_Z   1
loop_
 _symmetry_equiv_pos_site_id
 _symmetry_equiv_pos_as_xyz
  1  'x, y, z'
  2  '-x, -y, -z'
  3  'x+1/2, -y+1/2, -z'
  4  '-x+1/2, y+1/2, z'
  5  '-x+1/2, y+1/2, -z+1/2'
  6  'x+1/2, -y+1/2, z+1/2'
  7  '-x, -y, z+1/2'
  8  'x, y, -z+1/2'
loop_
 _atom_site_type_symbol
 _atom_site_label
 _atom_site_symmetry_multiplicity
 _atom_site_fract_x
 _atom_site_fract_y
 _atom_site_fract_z
 _atom_site_occupancy
  La  La0  4  0.02017300  0.07006700  0.75000000  0.9
  Sr  Sr1  4  0.02017300  0.07006700  0.75000000  0.1
  Rh  Rh2  4  0.00000000  0.50000000  0.00000000  1.0
  O  O3  8  0.18935100  0.80217900  0.55279800  1.0
  O  O4  4  0.10581900  0.53116700  0.25000000  1.0
