# generated using pymatgen
data_Sr1.2La2.8Ti4O12
_symmetry_space_group_name_H-M   Pnma
_cell_length_a   5.56856000
_cell_length_b   5.67329700
_cell_length_c   7.93828800
_cell_angle_alpha   90.00000000
_cell_angle_beta   90.00000000
_cell_angle_gamma   90.00000000
_symmetry_Int_Tables_number   62
_chemical_formula_structural   Sr1.2La2.8Ti4O12
_chemical_formula_sum   'Sr1.2 La2.8 Ti4 O12'
_cell_volume   250.78714659
_cell_formula_units_Z   1
loop_
 _symmetry_equiv_pos_site_id
 _symmetry_equiv_pos_as_xyz
  1  'x, y, z'
  2  '-x, -y, -z'
  3  'x+1/2, -y+1/2, -z'
  4  '-x+1/2, y+1/2, z'
  5  '-x+1/2, y+1/2, -z+1/2'
  6  'x+1/2, -y+1/2, z+1/2'
  7  '-x, -y, z+1/2'
  8  'x, y, -z+1/2'
loop_
 _atom_site_type_symbol
 _atom_site_label
 _atom_site_symmetry_multiplicity
 _atom_site_fract_x
 _atom_site_fract_y
 _atom_site_fract_z
 _atom_site_occupancy
  La  La0  4  0.00755800  0.95263100  0.75000000  0.7
  Sr  Sr1  4  0.00755800  0.95263100  0.75000000  0.3
  Ti  Ti2  4  0.00000000  0.50000000  0.00000000  1.0
  O  O3  8  0.20851700  0.21078200  0.53684400  1.0
  O  O4  4  0.06855700  0.48673100  0.25000000  1.0
