# generated using pymatgen
data_La0.84Tm0.16Si2Ru3
_symmetry_space_group_name_H-M   P6/mmm
_cell_length_a   3.49226000
_cell_length_b   5.79926800
_cell_length_c   5.79926851
_cell_angle_alpha   119.99999709
_cell_angle_beta   90.00000000
_cell_angle_gamma   90.00000000
_symmetry_Int_Tables_number   191
_chemical_formula_structural   La0.84Tm0.16Si2Ru3
_chemical_formula_sum   'La0.84 Tm0.16 Si2 Ru3'
_cell_volume   101.71467377
_cell_formula_units_Z   1
loop_
 _symmetry_equiv_pos_site_id
 _symmetry_equiv_pos_as_xyz
  1  'x, y, z'
  2  '-x, -y, -z'
  3  'x, y-z, y'
  4  '-x, -y+z, -y'
  5  'x, -z, y-z'
  6  '-x, z, -y+z'
  7  'x, -y, -z'
  8  '-x, y, z'
  9  'x, -y+z, -y'
  10  '-x, y-z, y'
  11  'x, z, -y+z'
  12  '-x, -z, y-z'
  13  '-x, -z, -y'
  14  'x, z, y'
  15  '-x, -y, -y+z'
  16  'x, y, y-z'
  17  '-x, -y+z, z'
  18  'x, y-z, -z'
  19  '-x, z, y'
  20  'x, -z, -y'
  21  '-x, y, y-z'
  22  'x, -y, -y+z'
  23  '-x, y-z, -z'
  24  'x, -y+z, z'
loop_
 _atom_site_type_symbol
 _atom_site_label
 _atom_site_symmetry_multiplicity
 _atom_site_fract_x
 _atom_site_fract_y
 _atom_site_fract_z
 _atom_site_occupancy
  La  La0  1  0.00000000  0.00000000  0.00000000  0.84
  Tm  Tm1  1  0.00000000  0.00000000  0.00000000  0.16
  Si  Si2  2  0.00000000  0.33333333  0.66666667  1.0
  Ru  Ru3  3  0.50000000  0.00000000  0.50000000  1.0
