# generated using pymatgen
data_La0.88Mo6Se8
_symmetry_space_group_name_H-M   R-3
_cell_length_a   6.84882661
_cell_length_b   6.84882661
_cell_length_c   6.84882641
_cell_angle_alpha   88.63767065
_cell_angle_beta   88.63767065
_cell_angle_gamma   88.63766374
_symmetry_Int_Tables_number   148
_chemical_formula_structural   La0.88Mo6Se8
_chemical_formula_sum   'La0.88 Mo6 Se8'
_cell_volume   320.98579208
_cell_formula_units_Z   1
loop_
 _symmetry_equiv_pos_site_id
 _symmetry_equiv_pos_as_xyz
  1  'x, y, z'
  2  '-x, -y, -z'
  3  'z, x, y'
  4  '-z, -x, -y'
  5  'y, z, x'
  6  '-y, -z, -x'
loop_
 _atom_site_type_symbol
 _atom_site_label
 _atom_site_symmetry_multiplicity
 _atom_site_fract_x
 _atom_site_fract_y
 _atom_site_fract_z
 _atom_site_occupancy
  La  La0  1  0.00000000  0.00000000  0.00000000  0.88
  Mo  Mo1  6  0.23740200  0.42281900  0.56151700  1.0
  Se  Se2  6  0.12093900  0.75337100  0.37834700  1.0
  Se  Se3  2  0.24279100  0.24279100  0.24279100  1.0
