# generated using pymatgen
data_Sr9LaTi10O30
_symmetry_space_group_name_H-M   P-1
_cell_length_a   9.66032000
_cell_length_b   11.16485090
_cell_length_c   12.47456093
_cell_angle_alpha   77.03080604
_cell_angle_beta   75.07976010
_cell_angle_gamma   73.35141360
_symmetry_Int_Tables_number   2
_chemical_formula_structural   Sr9LaTi10O30
_chemical_formula_sum   'Sr18 La2 Ti20 O60'
_cell_volume   1228.98991335
_cell_formula_units_Z   2
loop_
 _symmetry_equiv_pos_site_id
 _symmetry_equiv_pos_as_xyz
  1  'x, y, z'
  2  '-x, -y, -z'
loop_
 _atom_site_type_symbol
 _atom_site_label
 _atom_site_symmetry_multiplicity
 _atom_site_fract_x
 _atom_site_fract_y
 _atom_site_fract_z
 _atom_site_occupancy
  Sr  Sr0  2  0.04974500  0.95017600  0.15025800  1.0
  Sr  Sr1  2  0.05017200  0.44983800  0.15032400  1.0
  Sr  Sr2  2  0.14943600  0.85040600  0.45011300  1.0
  Sr  Sr3  2  0.15031100  0.34962700  0.44983200  1.0
  Sr  Sr4  2  0.24997600  0.74971900  0.74999500  1.0
  Sr  Sr5  2  0.34979000  0.15027200  0.05031400  1.0
  Sr  Sr6  2  0.35023000  0.64959400  0.05000200  1.0
  Sr  Sr7  2  0.44972700  0.05027000  0.34991400  1.0
  Sr  Sr8  2  0.45021700  0.54984100  0.34978400  1.0
  La  La9  2  0.24998400  0.25002400  0.74997900  1.0
  Ti  Ti10  2  0.00048300  0.75022500  0.99915400  1.0
  Ti  Ti11  2  0.10043700  0.15034100  0.29967100  1.0
  Ti  Ti12  2  0.10155600  0.64943600  0.29973900  1.0
  Ti  Ti13  2  0.19916000  0.04945600  0.59920800  1.0
  Ti  Ti14  2  0.19971000  0.55132900  0.59977000  1.0
  Ti  Ti15  2  0.30076000  0.94890300  0.90026500  1.0
  Ti  Ti16  2  0.30095900  0.45078400  0.90040200  1.0
  Ti  Ti17  2  0.39886900  0.85089600  0.19992100  1.0
  Ti  Ti18  2  0.39939200  0.34961400  0.20013900  1.0
  Ti  Ti19  2  0.49993500  0.25010900  0.49886500  1.0
  O  O20  2  0.05019900  0.69960600  0.65007200  1.0
  O  O21  2  0.05300300  0.94749200  0.65827900  1.0
  O  O22  2  0.05352400  0.20088000  0.65173100  1.0
  O  O23  2  0.05413700  0.70621300  0.14866100  1.0
  O  O24  2  0.05701000  0.44298900  0.66034500  1.0
  O  O25  2  0.05834400  0.20537500  0.14686900  1.0
  O  O26  2  0.14138300  0.59433100  0.45283200  1.0
  O  O27  2  0.14171800  0.09478300  0.45298300  1.0
  O  O28  2  0.14706100  0.85305600  0.94194000  1.0
  O  O29  2  0.14939100  0.35058700  0.93747100  1.0
  O  O30  2  0.14952400  0.59969700  0.95018000  1.0
  O  O31  2  0.15182600  0.10258700  0.94650500  1.0
  O  O32  2  0.24948100  0.50015700  0.25001400  1.0
  O  O33  2  0.25041300  0.99966900  0.25027100  1.0
  O  O34  2  0.25266200  0.24732600  0.25803900  1.0
  O  O35  2  0.25272300  0.74736300  0.25824400  1.0
  O  O36  2  0.25816800  0.50202400  0.74722000  1.0
  O  O37  2  0.25835000  0.01069300  0.74723900  1.0
  O  O38  2  0.34194900  0.39438900  0.05236500  1.0
  O  O39  2  0.34216100  0.89468800  0.05264500  1.0
  O  O40  2  0.34583900  0.15416500  0.54474200  1.0
  O  O41  2  0.34761400  0.65244000  0.54153600  1.0
  O  O42  2  0.34819100  0.39735900  0.55349800  1.0
  O  O43  2  0.35009400  0.90004800  0.54992400  1.0
  O  O44  2  0.44658300  0.29909800  0.84826400  1.0
  O  O45  2  0.44953100  0.80032100  0.84979800  1.0
  O  O46  2  0.44985400  0.05015800  0.85679700  1.0
  O  O47  2  0.45257600  0.54704900  0.85795400  1.0
  O  O48  2  0.45798700  0.30543500  0.34763000  1.0
  O  O49  2  0.46443800  0.80445600  0.34515900  1.0
