# generated using pymatgen
data_La1.8Pr0.2Se2
_symmetry_space_group_name_H-M   C2/m
_cell_length_a   4.21791774
_cell_length_b   4.21791774
_cell_length_c   17.15207726
_cell_angle_alpha   87.95595617
_cell_angle_beta   87.95595617
_cell_angle_gamma   89.95462471
_symmetry_Int_Tables_number   12
_chemical_formula_structural   La1.8Pr0.2Se2
_chemical_formula_sum   'La1.8 Pr0.2 Se2'
_cell_volume   304.76144909
_cell_formula_units_Z   1
loop_
 _symmetry_equiv_pos_site_id
 _symmetry_equiv_pos_as_xyz
  1  'x, y, z'
  2  '-x, -y, -z'
  3  '-y, -x, -z'
  4  'y, x, z'
loop_
 _atom_site_type_symbol
 _atom_site_label
 _atom_site_symmetry_multiplicity
 _atom_site_fract_x
 _atom_site_fract_y
 _atom_site_fract_z
 _atom_site_occupancy
  La  La0  2  0.24040000  0.24040000  0.57545300  0.9
  Pr  Pr1  2  0.24040000  0.24040000  0.57545300  0.1
  Se  Se2  2  0.26333100  0.26333100  0.39754000  1.0
