# generated using pymatgen
data_LaMg
_symmetry_space_group_name_H-M   Cm
_cell_length_a   3.56524600
_cell_length_b   6.71173834
_cell_length_c   8.12168375
_cell_angle_alpha   106.36047898
_cell_angle_beta   90.00000000
_cell_angle_gamma   105.40247776
_symmetry_Int_Tables_number   8
_chemical_formula_structural   LaMg
_chemical_formula_sum   'La3 Mg3'
_cell_volume   179.18814313
_cell_formula_units_Z   3
loop_
 _symmetry_equiv_pos_site_id
 _symmetry_equiv_pos_as_xyz
  1  'x, y, z'
  2  '-x+y, y, z'
loop_
 _atom_site_type_symbol
 _atom_site_label
 _atom_site_symmetry_multiplicity
 _atom_site_fract_x
 _atom_site_fract_y
 _atom_site_fract_z
 _atom_site_occupancy
  La  La0  1  0.00033500  0.00067000  0.01476300  1.0
  La  La1  1  0.35439600  0.70879200  0.68444400  1.0
  La  La2  1  0.37277100  0.74554200  0.25801200  1.0
  Mg  Mg3  1  0.06952700  0.13905400  0.60602600  1.0
  Mg  Mg4  1  0.66427200  0.32854400  0.35229600  1.0
  Mg  Mg5  1  0.70536700  0.41073400  0.91779200  1.0
