# generated using pymatgen
data_LaMg2
_symmetry_space_group_name_H-M   Cmcm
_cell_length_a   5.53897300
_cell_length_b   5.89479996
_cell_length_c   5.89479996
_cell_angle_alpha   118.01057762
_cell_angle_beta   90.00000000
_cell_angle_gamma   90.00000000
_symmetry_Int_Tables_number   63
_chemical_formula_structural   LaMg2
_chemical_formula_sum   'La2 Mg4'
_cell_volume   169.92593901
_cell_formula_units_Z   2
loop_
 _symmetry_equiv_pos_site_id
 _symmetry_equiv_pos_as_xyz
  1  'x, y, z'
  2  '-x, -y, -z'
  3  'x+1/2, -y, -z'
  4  '-x+1/2, y, z'
  5  '-x, -z, -y'
  6  'x, z, y'
  7  '-x+1/2, z, y'
  8  'x+1/2, -z, -y'
loop_
 _atom_site_type_symbol
 _atom_site_label
 _atom_site_symmetry_multiplicity
 _atom_site_fract_x
 _atom_site_fract_y
 _atom_site_fract_z
 _atom_site_occupancy
  La  La0  2  0.25000000  0.68089100  0.68089100  1.0
  Mg  Mg1  4  0.25000000  0.32566100  0.98928400  1.0
