# generated using pymatgen
data_LaMg
_symmetry_space_group_name_H-M   Amm2
_cell_length_a   3.80553800
_cell_length_b   5.68844600
_cell_length_c   8.73644084
_cell_angle_alpha   90.00000000
_cell_angle_beta   102.57966229
_cell_angle_gamma   90.00000000
_symmetry_Int_Tables_number   38
_chemical_formula_structural   LaMg
_chemical_formula_sum   'La3 Mg3'
_cell_volume   184.58289357
_cell_formula_units_Z   3
loop_
 _symmetry_equiv_pos_site_id
 _symmetry_equiv_pos_as_xyz
  1  'x, y, z'
  2  '-x+z, -y, z'
  3  'x, -y, z'
  4  '-x+z, y, z'
loop_
 _atom_site_type_symbol
 _atom_site_label
 _atom_site_symmetry_multiplicity
 _atom_site_fract_x
 _atom_site_fract_y
 _atom_site_fract_z
 _atom_site_occupancy
  La  La0  1  0.64786500  0.00000000  0.29573000  1.0
  La  La1  1  0.79933600  0.50000000  0.59867200  1.0
  La  La2  1  0.98293300  0.00000000  0.96586600  1.0
  Mg  Mg3  1  0.11416400  0.50000000  0.22832800  1.0
  Mg  Mg4  1  0.32094700  0.00000000  0.64189400  1.0
  Mg  Mg5  1  0.46808800  0.50000000  0.93617600  1.0
