# generated using pymatgen
data_LaMg2
_symmetry_space_group_name_H-M   C2/c
_cell_length_a   5.80903600
_cell_length_b   5.93482077
_cell_length_c   6.46010467
_cell_angle_alpha   115.13919430
_cell_angle_beta   90.00000000
_cell_angle_gamma   119.30133802
_symmetry_Int_Tables_number   15
_chemical_formula_structural   LaMg2
_chemical_formula_sum   'La2 Mg4'
_cell_volume   169.61740769
_cell_formula_units_Z   2
loop_
 _symmetry_equiv_pos_site_id
 _symmetry_equiv_pos_as_xyz
  1  'x, y, z'
  2  '-x, -y, -z'
  3  'x-y, -y, -z+1/2'
  4  '-x+y, y, z+1/2'
loop_
 _atom_site_type_symbol
 _atom_site_label
 _atom_site_symmetry_multiplicity
 _atom_site_fract_x
 _atom_site_fract_y
 _atom_site_fract_z
 _atom_site_occupancy
  La  La0  2  0.08470800  0.00000000  0.25000000  1.0
  Mg  Mg1  4  0.25227400  0.66760800  0.75176600  1.0
