# generated using pymatgen
data_LaMg2
_symmetry_space_group_name_H-M   Cmcm
_cell_length_a   3.39333000
_cell_length_b   5.65984200
_cell_length_c   9.12038088
_cell_angle_alpha   90.00000000
_cell_angle_beta   100.72119304
_cell_angle_gamma   90.00000000
_symmetry_Int_Tables_number   63
_chemical_formula_structural   LaMg2
_chemical_formula_sum   'La2 Mg4'
_cell_volume   172.10576231
_cell_formula_units_Z   2
loop_
 _symmetry_equiv_pos_site_id
 _symmetry_equiv_pos_as_xyz
  1  'x, y, z'
  2  '-x, -y, -z'
  3  '-x, y+1/2, -z'
  4  'x, -y+1/2, z'
  5  'x-z, -y, -z'
  6  '-x+z, y, z'
  7  '-x+z, -y+1/2, z'
  8  'x-z, y+1/2, -z'
loop_
 _atom_site_type_symbol
 _atom_site_label
 _atom_site_symmetry_multiplicity
 _atom_site_fract_x
 _atom_site_fract_y
 _atom_site_fract_z
 _atom_site_occupancy
  La  La0  2  0.10961600  0.75000000  0.21923200  1.0
  Mg  Mg1  2  0.21980500  0.25000000  0.43961000  1.0
  Mg  Mg2  2  0.44329600  0.75000000  0.88659200  1.0
