# generated using pymatgen
data_LaMg
_symmetry_space_group_name_H-M   Amm2
_cell_length_a   5.65100000
_cell_length_b   6.07580200
_cell_length_c   6.12749663
_cell_angle_alpha   60.27868699
_cell_angle_beta   90.00000000
_cell_angle_gamma   90.00000000
_symmetry_Int_Tables_number   38
_chemical_formula_structural   LaMg
_chemical_formula_sum   'La3 Mg3'
_cell_volume   182.70708824
_cell_formula_units_Z   3
loop_
 _symmetry_equiv_pos_site_id
 _symmetry_equiv_pos_as_xyz
  1  'x, y, z'
  2  '-x, y+z, -z'
  3  '-x, y, z'
  4  'x, y+z, -z'
loop_
 _atom_site_type_symbol
 _atom_site_label
 _atom_site_symmetry_multiplicity
 _atom_site_fract_x
 _atom_site_fract_y
 _atom_site_fract_z
 _atom_site_occupancy
  La  La0  2  0.00000000  0.00161600  0.35470000  1.0
  La  La1  1  0.50000000  0.97419000  0.00000000  1.0
  Mg  Mg2  2  0.50000000  0.33473300  0.33060100  1.0
  Mg  Mg3  1  0.00000000  0.66781300  0.00000000  1.0
