# generated using pymatgen
data_LaMg2
_symmetry_space_group_name_H-M   P-62m
_cell_length_a   5.35419600
_cell_length_b   6.08362600
_cell_length_c   6.08362629
_cell_angle_alpha   60.00000159
_cell_angle_beta   90.00000000
_cell_angle_gamma   90.00000000
_symmetry_Int_Tables_number   189
_chemical_formula_structural   LaMg2
_chemical_formula_sum   'La2 Mg4'
_cell_volume   171.61290353
_cell_formula_units_Z   2
loop_
 _symmetry_equiv_pos_site_id
 _symmetry_equiv_pos_as_xyz
  1  'x, y, z'
  2  '-x, -y-z, y'
  3  'x, z, -y-z'
  4  '-x, y, z'
  5  'x, -y-z, y'
  6  '-x, z, -y-z'
  7  'x, -z, -y'
  8  '-x, -y, y+z'
  9  'x, y+z, -z'
  10  '-x, -z, -y'
  11  'x, -y, y+z'
  12  '-x, y+z, -z'
loop_
 _atom_site_type_symbol
 _atom_site_label
 _atom_site_symmetry_multiplicity
 _atom_site_fract_x
 _atom_site_fract_y
 _atom_site_fract_z
 _atom_site_occupancy
  La  La0  2  0.50000000  0.33333333  0.33333333  1.0
  Mg  Mg1  3  0.00000000  0.00000000  0.30028400  1.0
  Mg  Mg2  1  0.50000000  0.00000000  0.00000000  1.0
