# generated using pymatgen
data_La2Si2Ni1.8Pt0.2
_symmetry_space_group_name_H-M   I4_1md
_cell_length_a   4.18165400
_cell_length_b   4.18165400
_cell_length_c   7.60797294
_cell_angle_alpha   105.95131799
_cell_angle_beta   105.95131798
_cell_angle_gamma   90.00000000
_symmetry_Int_Tables_number   109
_chemical_formula_structural   La2Si2Ni1.8Pt0.2
_chemical_formula_sum   'La2 Si2 Ni1.8 Pt0.2'
_cell_volume   122.57602541
_cell_formula_units_Z   1
loop_
 _symmetry_equiv_pos_site_id
 _symmetry_equiv_pos_as_xyz
  1  'x, y, z'
  2  '-y+z+3/4, x+1/4, z+1/2'
  3  '-x+z, -y+z, z'
  4  'y+3/4, -x+z+1/4, z+1/2'
  5  '-x+z, y, z'
  6  'y+3/4, x+1/4, z+1/2'
  7  'x, -y+z, z'
  8  '-y+z+3/4, -x+z+1/4, z+1/2'
loop_
 _atom_site_type_symbol
 _atom_site_label
 _atom_site_symmetry_multiplicity
 _atom_site_fract_x
 _atom_site_fract_y
 _atom_site_fract_z
 _atom_site_occupancy
  La  La0  2  0.50178200  0.00178200  0.00356400  1.0
  Si  Si1  2  0.08145100  0.58145100  0.16290200  1.0
  Ni  Ni2  2  0.16276700  0.16276700  0.32553400  0.9
  Pt  Pt3  2  0.16276700  0.16276700  0.32553400  0.1
