# generated using pymatgen
data_LaNiSn
_symmetry_space_group_name_H-M   Pnma
_cell_length_a   4.75395400
_cell_length_b   7.29576400
_cell_length_c   7.81078000
_cell_angle_alpha   90.00000000
_cell_angle_beta   90.00000000
_cell_angle_gamma   90.00000000
_symmetry_Int_Tables_number   62
_chemical_formula_structural   LaNiSn
_chemical_formula_sum   'La4 Ni4 Sn4'
_cell_volume   270.90695689
_cell_formula_units_Z   4
loop_
 _symmetry_equiv_pos_site_id
 _symmetry_equiv_pos_as_xyz
  1  'x, y, z'
  2  '-x, -y, -z'
  3  '-x, y+1/2, -z+1/2'
  4  'x, -y+1/2, z+1/2'
  5  '-x+1/2, -y+1/2, z+1/2'
  6  'x+1/2, y+1/2, -z+1/2'
  7  'x+1/2, -y, -z'
  8  '-x+1/2, y, z'
loop_
 _atom_site_type_symbol
 _atom_site_label
 _atom_site_symmetry_multiplicity
 _atom_site_fract_x
 _atom_site_fract_y
 _atom_site_fract_z
 _atom_site_occupancy
  La  La0  4  0.25000000  0.68463900  0.96855300  1.0
  Ni  Ni1  4  0.25000000  0.07482100  0.17581300  1.0
  Sn  Sn2  4  0.25000000  0.10074500  0.82311300  1.0
