# generated using pymatgen
data_La(NiP)2
_symmetry_space_group_name_H-M   I4/mmm
_cell_length_a   4.00127600
_cell_length_b   4.00127600
_cell_length_c   5.58569180
_cell_angle_alpha   110.98797021
_cell_angle_beta   110.98797022
_cell_angle_gamma   89.99999999
_symmetry_Int_Tables_number   139
_chemical_formula_structural   La(NiP)2
_chemical_formula_sum   'La1 Ni2 P2'
_cell_volume   77.10681857
_cell_formula_units_Z   1
loop_
 _symmetry_equiv_pos_site_id
 _symmetry_equiv_pos_as_xyz
  1  'x, y, z'
  2  '-x, -y, -z'
  3  '-y+z, x, z'
  4  'y-z, -x, -z'
  5  '-x+z, -y+z, z'
  6  'x-z, y-z, -z'
  7  'y, -x+z, z'
  8  '-y, x-z, -z'
  9  'x-z, -y, -z'
  10  '-x+z, y, z'
  11  '-y, -x, -z'
  12  'y, x, z'
  13  '-x, y-z, -z'
  14  'x, -y+z, z'
  15  'y-z, x-z, -z'
  16  '-y+z, -x+z, z'
loop_
 _atom_site_type_symbol
 _atom_site_label
 _atom_site_symmetry_multiplicity
 _atom_site_fract_x
 _atom_site_fract_y
 _atom_site_fract_z
 _atom_site_occupancy
  La  La0  1  0.00000000  0.00000000  0.00000000  1.0
  Ni  Ni1  2  0.25000000  0.75000000  0.50000000  1.0
  P  P2  2  0.36989100  0.36989100  0.73978200  1.0
