# generated using pymatgen
data_LaRh3
_symmetry_space_group_name_H-M   R-3m
_cell_length_a   5.38004902
_cell_length_b   5.38004902
_cell_length_c   9.48292462
_cell_angle_alpha   73.52061938
_cell_angle_beta   73.52061938
_cell_angle_gamma   60.00001207
_symmetry_Int_Tables_number   166
_chemical_formula_structural   LaRh3
_chemical_formula_sum   'La3 Rh9'
_cell_volume   224.59506856
_cell_formula_units_Z   3
loop_
 _symmetry_equiv_pos_site_id
 _symmetry_equiv_pos_as_xyz
  1  'x, y, z'
  2  '-x, -y, -z'
  3  '-x-y-z, x, z'
  4  'x+y+z, -x, -z'
  5  'y, -x-y-z, z'
  6  '-y, x+y+z, -z'
  7  '-x, x+y+z, -z'
  8  'x, -x-y-z, z'
  9  'x+y+z, -y, -z'
  10  '-x-y-z, y, z'
  11  '-y, -x, -z'
  12  'y, x, z'
loop_
 _atom_site_type_symbol
 _atom_site_label
 _atom_site_symmetry_multiplicity
 _atom_site_fract_x
 _atom_site_fract_y
 _atom_site_fract_z
 _atom_site_occupancy
  La  La0  2  0.13850100  0.13850100  0.58449700  1.0
  La  La1  1  0.00000000  0.00000000  0.00000000  1.0
  Rh  Rh2  6  0.08260200  0.58054600  0.75630600  1.0
  Rh  Rh3  2  0.33238200  0.33238200  0.00285400  1.0
  Rh  Rh4  1  0.50000000  0.50000000  0.50000000  1.0
