# generated using pymatgen
data_LaSi3Rh
_symmetry_space_group_name_H-M   I4mm
_cell_length_a   4.27926800
_cell_length_b   4.27926800
_cell_length_c   5.80764916
_cell_angle_alpha   111.61799421
_cell_angle_beta   111.61799422
_cell_angle_gamma   90.00000000
_symmetry_Int_Tables_number   107
_chemical_formula_structural   LaSi3Rh
_chemical_formula_sum   'La1 Si3 Rh1'
_cell_volume   90.77486278
_cell_formula_units_Z   1
loop_
 _symmetry_equiv_pos_site_id
 _symmetry_equiv_pos_as_xyz
  1  'x, y, z'
  2  '-y+z, x, z'
  3  '-x+z, -y+z, z'
  4  'y, -x+z, z'
  5  '-x+z, y, z'
  6  'y, x, z'
  7  'x, -y+z, z'
  8  '-y+z, -x+z, z'
loop_
 _atom_site_type_symbol
 _atom_site_label
 _atom_site_symmetry_multiplicity
 _atom_site_fract_x
 _atom_site_fract_y
 _atom_site_fract_z
 _atom_site_occupancy
  La  La0  1  0.99947700  0.99947700  0.99895400  1.0
  Si  Si1  2  0.26148100  0.76148100  0.52296200  1.0
  Si  Si2  1  0.41307600  0.41307600  0.82615200  1.0
  Rh  Rh3  1  0.65448500  0.65448500  0.30897000  1.0
