# generated using pymatgen
data_LaSnRh
_symmetry_space_group_name_H-M   P-62m
_cell_length_a   4.26360700
_cell_length_b   7.54788200
_cell_length_c   7.54788152
_cell_angle_alpha   120.00000212
_cell_angle_beta   90.00000000
_cell_angle_gamma   90.00000000
_symmetry_Int_Tables_number   189
_chemical_formula_structural   LaSnRh
_chemical_formula_sum   'La3 Sn3 Rh3'
_cell_volume   210.35748283
_cell_formula_units_Z   3
loop_
 _symmetry_equiv_pos_site_id
 _symmetry_equiv_pos_as_xyz
  1  'x, y, z'
  2  '-x, -y+z, -y'
  3  'x, -z, y-z'
  4  '-x, y, z'
  5  'x, -y+z, -y'
  6  '-x, -z, y-z'
  7  'x, y-z, -z'
  8  '-x, z, y'
  9  'x, -y, -y+z'
  10  '-x, y-z, -z'
  11  'x, z, y'
  12  '-x, -y, -y+z'
loop_
 _atom_site_type_symbol
 _atom_site_label
 _atom_site_symmetry_multiplicity
 _atom_site_fract_x
 _atom_site_fract_y
 _atom_site_fract_z
 _atom_site_occupancy
  La  La0  3  0.00000000  0.00000000  0.58425900  1.0
  Sn  Sn1  3  0.50000000  0.00000000  0.24586500  1.0
  Rh  Rh2  2  0.50000000  0.33333333  0.66666667  1.0
  Rh  Rh3  1  0.00000000  0.00000000  0.00000000  1.0
