# generated using pymatgen
data_LaSn2
_symmetry_space_group_name_H-M   Cmmm
_cell_length_a   4.68083000
_cell_length_b   4.82574500
_cell_length_c   7.99147524
_cell_angle_alpha   90.00000000
_cell_angle_beta   107.02949454
_cell_angle_gamma   90.00000000
_symmetry_Int_Tables_number   65
_chemical_formula_structural   LaSn2
_chemical_formula_sum   'La2 Sn4'
_cell_volume   172.60051939
_cell_formula_units_Z   2
loop_
 _symmetry_equiv_pos_site_id
 _symmetry_equiv_pos_as_xyz
  1  'x, y, z'
  2  '-x, -y, -z'
  3  '-x, y, -z'
  4  'x, -y, z'
  5  'x-z, -y, -z'
  6  '-x+z, y, z'
  7  '-x+z, -y, z'
  8  'x-z, y, -z'
loop_
 _atom_site_type_symbol
 _atom_site_label
 _atom_site_symmetry_multiplicity
 _atom_site_fract_x
 _atom_site_fract_y
 _atom_site_fract_z
 _atom_site_occupancy
  La  La0  2  0.14836900  0.00000000  0.29673800  1.0
  Sn  Sn1  2  0.32610600  0.50000000  0.65221200  1.0
  Sn  Sn2  1  0.00000000  0.50000000  0.00000000  1.0
  Sn  Sn3  1  0.50000000  0.00000000  0.00000000  1.0
