# generated using pymatgen
data_LaSe
_symmetry_space_group_name_H-M   P-1
_cell_length_a   4.21545900
_cell_length_b   4.21624125
_cell_length_c   35.58450077
_cell_angle_alpha   89.68882053
_cell_angle_beta   90.42402596
_cell_angle_gamma   89.90134161
_symmetry_Int_Tables_number   2
_chemical_formula_structural   LaSe
_chemical_formula_sum   'La4 Se4'
_cell_volume   632.42965664
_cell_formula_units_Z   4
loop_
 _symmetry_equiv_pos_site_id
 _symmetry_equiv_pos_as_xyz
  1  'x, y, z'
  2  '-x, -y, -z'
loop_
 _atom_site_type_symbol
 _atom_site_label
 _atom_site_symmetry_multiplicity
 _atom_site_fract_x
 _atom_site_fract_y
 _atom_site_fract_z
 _atom_site_occupancy
  La  La0  2  0.03840100  0.70146600  0.21459000  1.0
  La  La1  2  0.45527400  0.80064300  0.71287800  1.0
  Se  Se2  2  0.04578400  0.69882400  0.30060200  1.0
  Se  Se3  2  0.46229900  0.79792900  0.79884100  1.0
