# generated using pymatgen
data_LaSb2
_symmetry_space_group_name_H-M   Cmce
_cell_length_a   4.48334442
_cell_length_b   4.48334442
_cell_length_c   18.67147800
_cell_angle_alpha   90.00000000
_cell_angle_beta   90.00000000
_cell_angle_gamma   89.62205215
_symmetry_Int_Tables_number   64
_chemical_formula_structural   LaSb2
_chemical_formula_sum   'La4 Sb8'
_cell_volume   375.29558521
_cell_formula_units_Z   4
loop_
 _symmetry_equiv_pos_site_id
 _symmetry_equiv_pos_as_xyz
  1  'x, y, z'
  2  '-x, -y, -z'
  3  '-x+1/2, -y+1/2, z+1/2'
  4  'x+1/2, y+1/2, -z+1/2'
  5  'y, x, -z'
  6  '-y, -x, z'
  7  '-y+1/2, -x+1/2, -z+1/2'
  8  'y+1/2, x+1/2, z+1/2'
loop_
 _atom_site_type_symbol
 _atom_site_label
 _atom_site_symmetry_multiplicity
 _atom_site_fract_x
 _atom_site_fract_y
 _atom_site_fract_z
 _atom_site_occupancy
  La  La0  4  0.13603100  0.86396900  0.60977700  1.0
  Sb  Sb1  4  0.12725900  0.37274100  0.75000000  1.0
  Sb  Sb2  4  0.12959100  0.87040900  0.93681100  1.0
