# generated using pymatgen
data_La2Mg
_symmetry_space_group_name_H-M   Cmcm
_cell_length_a   3.64534000
_cell_length_b   5.74965600
_cell_length_c   9.45161287
_cell_angle_alpha   90.00000000
_cell_angle_beta   101.11869954
_cell_angle_gamma   90.00000000
_symmetry_Int_Tables_number   63
_chemical_formula_structural   La2Mg
_chemical_formula_sum   'La4 Mg2'
_cell_volume   194.38222441
_cell_formula_units_Z   2
loop_
 _symmetry_equiv_pos_site_id
 _symmetry_equiv_pos_as_xyz
  1  'x, y, z'
  2  '-x, -y, -z'
  3  '-x, y+1/2, -z'
  4  'x, -y+1/2, z'
  5  'x-z, -y, -z'
  6  '-x+z, y, z'
  7  '-x+z, -y+1/2, z'
  8  'x-z, y+1/2, -z'
loop_
 _atom_site_type_symbol
 _atom_site_label
 _atom_site_symmetry_multiplicity
 _atom_site_fract_x
 _atom_site_fract_y
 _atom_site_fract_z
 _atom_site_occupancy
  La  La0  2  0.22485100  0.75000000  0.44970200  1.0
  La  La1  2  0.44445000  0.25000000  0.88890000  1.0
  Mg  Mg2  2  0.11112300  0.25000000  0.22224600  1.0
