# generated using pymatgen
data_La2Mg
_symmetry_space_group_name_H-M   R32
_cell_length_a   6.21659319
_cell_length_b   6.21659319
_cell_length_c   6.90060970
_cell_angle_alpha   63.22821811
_cell_angle_beta   63.22821811
_cell_angle_gamma   60.00000864
_symmetry_Int_Tables_number   155
_chemical_formula_structural   La2Mg
_chemical_formula_sum   'La4 Mg2'
_cell_volume   197.25499749
_cell_formula_units_Z   2
loop_
 _symmetry_equiv_pos_site_id
 _symmetry_equiv_pos_as_xyz
  1  'x, y, z'
  2  '-x-y-z, x, z'
  3  'y, -x-y-z, z'
  4  '-x, x+y+z, -z'
  5  'x+y+z, -y, -z'
  6  '-y, -x, -z'
loop_
 _atom_site_type_symbol
 _atom_site_label
 _atom_site_symmetry_multiplicity
 _atom_site_fract_x
 _atom_site_fract_y
 _atom_site_fract_z
 _atom_site_occupancy
  La  La0  3  0.00000000  0.32201600  0.00000000  1.0
  La  La1  1  0.50000000  0.50000000  0.50000000  1.0
  Mg  Mg2  2  0.16736700  0.16736700  0.49789900  1.0
