# generated using pymatgen
data_La7.65550239Ni3.8277512O16
_symmetry_space_group_name_H-M   P4_2/ncm
_cell_length_a   5.60789200
_cell_length_b   5.60789200
_cell_length_c   12.42322900
_cell_angle_alpha   90.00000000
_cell_angle_beta   90.00000000
_cell_angle_gamma   90.00000000
_symmetry_Int_Tables_number   138
_chemical_formula_structural   La7.65550239Ni3.8277512O16
_chemical_formula_sum   'La7.65550239 Ni3.8277512 O16'
_cell_volume   390.69132938
_cell_formula_units_Z   1
loop_
 _symmetry_equiv_pos_site_id
 _symmetry_equiv_pos_as_xyz
  1  'x, y, z'
  2  '-y+1/2, x, z+1/2'
  3  '-x+1/2, -y+1/2, z'
  4  'y, -x+1/2, z+1/2'
  5  'x+1/2, -y, -z+1/2'
  6  '-y, -x, -z'
  7  '-x, y+1/2, -z+1/2'
  8  'y+1/2, x+1/2, -z'
  9  '-x, -y, -z'
  10  'y+1/2, -x, -z+1/2'
  11  'x+1/2, y+1/2, -z'
  12  '-y, x+1/2, -z+1/2'
  13  '-x+1/2, y, z+1/2'
  14  'y, x, z'
  15  'x, -y+1/2, z+1/2'
  16  '-y+1/2, -x+1/2, z'
loop_
 _atom_site_type_symbol
 _atom_site_label
 _atom_site_symmetry_multiplicity
 _atom_site_fract_x
 _atom_site_fract_y
 _atom_site_fract_z
 _atom_site_occupancy
  La  La0  8  0.01280300  0.01280300  0.63701700  0.9569377990375
  Ni  Ni1  4  0.00000000  0.00000000  0.00000000  0.95693779905
  O  O2  8  0.04647100  0.04647100  0.17933100  1.0
  O  O3  4  0.25000000  0.25000000  0.47520200  1.0
  O  O4  4  0.25000000  0.75000000  0.00000000  1.0
