# generated using pymatgen
data_La3Ni1.5O6
_symmetry_space_group_name_H-M   I4/mmm
_cell_length_a   3.99301800
_cell_length_b   3.99301800
_cell_length_c   10.08335035
_cell_angle_alpha   101.42006143
_cell_angle_beta   101.42006143
_cell_angle_gamma   89.99999999
_symmetry_Int_Tables_number   139
_chemical_formula_structural   La3Ni1.5O6
_chemical_formula_sum   'La3 Ni1.5 O6'
_cell_volume   154.33933935
_cell_formula_units_Z   1
loop_
 _symmetry_equiv_pos_site_id
 _symmetry_equiv_pos_as_xyz
  1  'x, y, z'
  2  '-x, -y, -z'
  3  '-y+z, x, z'
  4  'y-z, -x, -z'
  5  '-x+z, -y+z, z'
  6  'x-z, y-z, -z'
  7  'y, -x+z, z'
  8  '-y, x-z, -z'
  9  'x-z, -y, -z'
  10  '-x+z, y, z'
  11  '-y, -x, -z'
  12  'y, x, z'
  13  '-x, y-z, -z'
  14  'x, -y+z, z'
  15  'y-z, x-z, -z'
  16  '-y+z, -x+z, z'
loop_
 _atom_site_type_symbol
 _atom_site_label
 _atom_site_symmetry_multiplicity
 _atom_site_fract_x
 _atom_site_fract_y
 _atom_site_fract_z
 _atom_site_occupancy
  La  La0  2  0.31594000  0.31594000  0.63188000  1.0
  La  La1  1  0.50000000  0.50000000  0.00000000  1.0
  Ni  Ni2  2  0.08252300  0.08252300  0.16504600  0.75
  O  O3  4  0.08306500  0.58306500  0.16613000  1.0
  O  O4  2  0.25000000  0.75000000  0.50000000  1.0
