# generated using pymatgen
data_La2NiO4
_symmetry_space_group_name_H-M   Cmc2_1
_cell_length_a   3.96533000
_cell_length_b   7.07748515
_cell_length_c   7.34320200
_cell_angle_alpha   90.00000000
_cell_angle_beta   90.00000000
_cell_angle_gamma   106.26837760
_symmetry_Int_Tables_number   36
_chemical_formula_structural   La2NiO4
_chemical_formula_sum   'La4 Ni2 O8'
_cell_volume   197.83218028
_cell_formula_units_Z   2
loop_
 _symmetry_equiv_pos_site_id
 _symmetry_equiv_pos_as_xyz
  1  'x, y, z'
  2  '-x, -y, z+1/2'
  3  '-x+y, y, z'
  4  'x-y, -y, z+1/2'
loop_
 _atom_site_type_symbol
 _atom_site_label
 _atom_site_symmetry_multiplicity
 _atom_site_fract_x
 _atom_site_fract_y
 _atom_site_fract_z
 _atom_site_occupancy
  La  La0  2  0.05306300  0.10612600  0.15225100  1.0
  La  La1  2  0.28362300  0.56724600  0.35556800  1.0
  Ni  Ni2  2  0.39046000  0.78092000  0.96279200  1.0
  O  O3  2  0.10240600  0.20481200  0.50361800  1.0
  O  O4  2  0.23380500  0.46761000  0.01669200  1.0
  O  O5  2  0.35348600  0.70697200  0.70746900  1.0
  O  O6  2  0.45679900  0.91359800  0.36431000  1.0
