# generated using pymatgen
data_La2Sn5Rh3
_symmetry_space_group_name_H-M   Ibam
_cell_length_a   6.47363600
_cell_length_b   9.12301869
_cell_length_c   9.12301869
_cell_angle_alpha   73.89347099
_cell_angle_beta   69.21900767
_cell_angle_gamma   69.21900767
_symmetry_Int_Tables_number   72
_chemical_formula_structural   La2Sn5Rh3
_chemical_formula_sum   'La4 Sn10 Rh6'
_cell_volume   463.84126755
_cell_formula_units_Z   2
loop_
 _symmetry_equiv_pos_site_id
 _symmetry_equiv_pos_as_xyz
  1  'x, y, z'
  2  '-x, -y, -z'
  3  'x+y+z, -y, -z'
  4  '-x-y-z, y, z'
  5  '-x+1/2, -z, -y'
  6  'x+1/2, z, y'
  7  '-x-y-z+1/2, z, y'
  8  'x+y+z+1/2, -z, -y'
loop_
 _atom_site_type_symbol
 _atom_site_label
 _atom_site_symmetry_multiplicity
 _atom_site_fract_x
 _atom_site_fract_y
 _atom_site_fract_z
 _atom_site_occupancy
  La  La0  4  0.14386500  0.62737300  0.08489700  1.0
  Sn  Sn1  4  0.02855400  0.72144600  0.72144600  1.0
  Sn  Sn2  4  0.08717800  0.24539600  0.58024800  1.0
  Sn  Sn3  2  0.25000000  0.00000000  0.00000000  1.0
  Rh  Rh4  4  0.14123700  0.96353400  0.75399200  1.0
  Rh  Rh5  2  0.25000000  0.50000000  0.50000000  1.0
