# generated using pymatgen
data_La2Si5Rh3
_symmetry_space_group_name_H-M   Ibam
_cell_length_a   5.92313200
_cell_length_b   8.33743280
_cell_length_c   8.33743280
_cell_angle_alpha   73.93631502
_cell_angle_beta   69.19348988
_cell_angle_gamma   69.19348989
_symmetry_Int_Tables_number   72
_chemical_formula_structural   La2Si5Rh3
_chemical_formula_sum   'La4 Si10 Rh6'
_cell_volume   354.40384974
_cell_formula_units_Z   2
loop_
 _symmetry_equiv_pos_site_id
 _symmetry_equiv_pos_as_xyz
  1  'x, y, z'
  2  '-x, -y, -z'
  3  'x+y+z, -y, -z'
  4  '-x-y-z, y, z'
  5  '-x+1/2, -z, -y'
  6  'x+1/2, z, y'
  7  '-x-y-z+1/2, z, y'
  8  'x+y+z+1/2, -z, -y'
loop_
 _atom_site_type_symbol
 _atom_site_label
 _atom_site_symmetry_multiplicity
 _atom_site_fract_x
 _atom_site_fract_y
 _atom_site_fract_z
 _atom_site_occupancy
  La  La0  4  0.13078100  0.10199000  0.63644800  1.0
  Si  Si1  4  0.02518900  0.72481100  0.72481100  1.0
  Si  Si2  4  0.10768200  0.54319700  0.24143900  1.0
  Si  Si3  2  0.25000000  0.00000000  0.00000000  1.0
  Rh  Rh4  4  0.13853800  0.75214700  0.97077800  1.0
  Rh  Rh5  2  0.25000000  0.50000000  0.50000000  1.0
