# generated using pymatgen
data_La2Sn5
_symmetry_space_group_name_H-M   Cmmm
_cell_length_a   4.70617800
_cell_length_b   4.74317000
_cell_length_c   17.98140624
_cell_angle_alpha   90.00000000
_cell_angle_beta   97.51942680
_cell_angle_gamma   90.00000000
_symmetry_Int_Tables_number   65
_chemical_formula_structural   La2Sn5
_chemical_formula_sum   'La4 Sn10'
_cell_volume   397.93290029
_cell_formula_units_Z   2
loop_
 _symmetry_equiv_pos_site_id
 _symmetry_equiv_pos_as_xyz
  1  'x, y, z'
  2  '-x, -y, -z'
  3  '-x, y, -z'
  4  'x, -y, z'
  5  'x-z, -y, -z'
  6  '-x+z, y, z'
  7  '-x+z, -y, z'
  8  'x-z, y, -z'
loop_
 _atom_site_type_symbol
 _atom_site_label
 _atom_site_symmetry_multiplicity
 _atom_site_fract_x
 _atom_site_fract_y
 _atom_site_fract_z
 _atom_site_occupancy
  La  La0  2  0.29720500  0.00000000  0.59441000  1.0
  La  La1  2  0.43215300  0.00000000  0.86430600  1.0
  Sn  Sn2  2  0.07170300  0.50000000  0.14340600  1.0
  Sn  Sn3  2  0.13794900  0.00000000  0.27589800  1.0
  Sn  Sn4  2  0.22120000  0.50000000  0.44240000  1.0
  Sn  Sn5  2  0.36203900  0.50000000  0.72407800  1.0
  Sn  Sn6  1  0.00000000  0.00000000  0.00000000  1.0
  Sn  Sn7  1  0.50000000  0.50000000  0.00000000  1.0
