# generated using pymatgen
data_Sr1.99850112La3.99700225O8
_symmetry_space_group_name_H-M   Cmcm
_cell_length_a   3.58163200
_cell_length_b   6.24234218
_cell_length_c   11.56174800
_cell_angle_alpha   90.00000000
_cell_angle_beta   90.00000000
_cell_angle_gamma   106.67138140
_symmetry_Int_Tables_number   63
_chemical_formula_structural   Sr1.99850112La3.99700225O8
_chemical_formula_sum   'Sr1.99850112 La3.99700225 O8'
_cell_volume   247.62933202
_cell_formula_units_Z   1
loop_
 _symmetry_equiv_pos_site_id
 _symmetry_equiv_pos_as_xyz
  1  'x, y, z'
  2  '-x, -y, -z'
  3  '-x, -y, z+1/2'
  4  'x, y, -z+1/2'
  5  'x-y, -y, -z'
  6  '-x+y, y, z'
  7  '-x+y, y, -z+1/2'
  8  'x-y, -y, z+1/2'
loop_
 _atom_site_type_symbol
 _atom_site_label
 _atom_site_symmetry_multiplicity
 _atom_site_fract_x
 _atom_site_fract_y
 _atom_site_fract_z
 _atom_site_occupancy
  Sr  Sr0  2  0.11146800  0.22293600  0.75000000  0.9992505621
  La  La1  4  0.36794300  0.73588600  0.57453800  0.999250562075
  O  O2  4  0.26524400  0.53048800  0.11050200  1.0
  O  O3  2  0.00000000  0.00000000  0.00000000  1.0
  O  O4  2  0.46978700  0.93957400  0.75000000  1.0
