# generated using pymatgen
data_La2S3
_symmetry_space_group_name_H-M   Pnma
_cell_length_a   4.16067400
_cell_length_b   7.61656600
_cell_length_c   15.88406400
_cell_angle_alpha   90.00000000
_cell_angle_beta   90.00000000
_cell_angle_gamma   90.00000000
_symmetry_Int_Tables_number   62
_chemical_formula_structural   La2S3
_chemical_formula_sum   'La8 S12'
_cell_volume   503.36675259
_cell_formula_units_Z   4
loop_
 _symmetry_equiv_pos_site_id
 _symmetry_equiv_pos_as_xyz
  1  'x, y, z'
  2  '-x, -y, -z'
  3  '-x, -y+1/2, z+1/2'
  4  'x, y+1/2, -z+1/2'
  5  '-x+1/2, y+1/2, -z+1/2'
  6  'x+1/2, -y+1/2, z+1/2'
  7  'x+1/2, -y, -z'
  8  '-x+1/2, y, z'
loop_
 _atom_site_type_symbol
 _atom_site_label
 _atom_site_symmetry_multiplicity
 _atom_site_fract_x
 _atom_site_fract_y
 _atom_site_fract_z
 _atom_site_occupancy
  La  La0  4  0.25000000  0.14662600  0.79498400  1.0
  La  La1  4  0.25000000  0.26397600  0.04393200  1.0
  S  S2  4  0.25000000  0.01187300  0.60944600  1.0
  S  S3  4  0.25000000  0.14522900  0.21959200  1.0
  S  S4  4  0.25000000  0.37122700  0.43263900  1.0
