# generated using pymatgen
data_La2Sn5
_symmetry_space_group_name_H-M   Cmmm
_cell_length_a   3.27104900
_cell_length_b   5.82623200
_cell_length_c   22.67280174
_cell_angle_alpha   97.38205775
_cell_angle_beta   90.00000000
_cell_angle_gamma   90.00000000
_symmetry_Int_Tables_number   65
_chemical_formula_structural   La2Sn5
_chemical_formula_sum   'La4 Sn10'
_cell_volume   428.51432065
_cell_formula_units_Z   2
loop_
 _symmetry_equiv_pos_site_id
 _symmetry_equiv_pos_as_xyz
  1  'x, y, z'
  2  '-x, -y, -z'
  3  'x, -y, -z'
  4  '-x, y, z'
  5  '-x, y-z, -z'
  6  'x, -y+z, z'
  7  '-x, -y+z, z'
  8  'x, y-z, -z'
loop_
 _atom_site_type_symbol
 _atom_site_label
 _atom_site_symmetry_multiplicity
 _atom_site_fract_x
 _atom_site_fract_y
 _atom_site_fract_z
 _atom_site_occupancy
  La  La0  2  0.00000000  0.29388700  0.58777400  1.0
  La  La1  2  0.50000000  0.43038100  0.86076200  1.0
  Sn  Sn2  2  0.00000000  0.16123600  0.32247200  1.0
  Sn  Sn3  2  0.50000000  0.10320700  0.20641400  1.0
  Sn  Sn4  2  0.50000000  0.22514000  0.45028000  1.0
  Sn  Sn5  2  0.50000000  0.35948600  0.71897200  1.0
  Sn  Sn6  1  0.00000000  0.00000000  0.00000000  1.0
  Sn  Sn7  1  0.50000000  0.50000000  0.00000000  1.0
