# generated using pymatgen
data_La3(SiNi)4
_symmetry_space_group_name_H-M   Immm
_cell_length_a   4.11894400
_cell_length_b   4.17225400
_cell_length_c   12.15529075
_cell_angle_alpha   99.88219490
_cell_angle_beta   99.75468492
_cell_angle_gamma   90.00000001
_symmetry_Int_Tables_number   71
_chemical_formula_structural   La3(SiNi)4
_chemical_formula_sum   'La3 Si4 Ni4'
_cell_volume   202.72640287
_cell_formula_units_Z   1
loop_
 _symmetry_equiv_pos_site_id
 _symmetry_equiv_pos_as_xyz
  1  'x, y, z'
  2  '-x, -y, -z'
  3  '-x+z, -y+z, z'
  4  'x-z, y-z, -z'
  5  'x-z, -y, -z'
  6  '-x+z, y, z'
  7  '-x, y-z, -z'
  8  'x, -y+z, z'
loop_
 _atom_site_type_symbol
 _atom_site_label
 _atom_site_symmetry_multiplicity
 _atom_site_fract_x
 _atom_site_fract_y
 _atom_site_fract_z
 _atom_site_occupancy
  La  La0  2  0.35001000  0.85001000  0.70002000  1.0
  La  La1  1  0.00000000  0.00000000  0.00000000  1.0
  Si  Si2  2  0.20089100  0.70089100  0.40178200  1.0
  Si  Si3  2  0.44823900  0.44823900  0.89647800  1.0
  Ni  Ni4  2  0.09957900  0.59957900  0.19915800  1.0
  Ni  Ni5  2  0.24850200  0.24850200  0.49700400  1.0
