# generated using pymatgen
data_La3Ni4(P2O)2
_symmetry_space_group_name_H-M   I4/mmm
_cell_length_a   4.00921400
_cell_length_b   4.00921400
_cell_length_c   13.29695970
_cell_angle_alpha   98.67078635
_cell_angle_beta   98.67078636
_cell_angle_gamma   89.99999998
_symmetry_Int_Tables_number   139
_chemical_formula_structural   La3Ni4(P2O)2
_chemical_formula_sum   'La3 Ni4 P4 O2'
_cell_volume   208.81850500
_cell_formula_units_Z   1
loop_
 _symmetry_equiv_pos_site_id
 _symmetry_equiv_pos_as_xyz
  1  'x, y, z'
  2  '-x, -y, -z'
  3  '-y+z, x, z'
  4  'y-z, -x, -z'
  5  '-x+z, -y+z, z'
  6  'x-z, y-z, -z'
  7  'y, -x+z, z'
  8  '-y, x-z, -z'
  9  'x-z, -y, -z'
  10  '-x+z, y, z'
  11  '-y, -x, -z'
  12  'y, x, z'
  13  '-x, y-z, -z'
  14  'x, -y+z, z'
  15  'y-z, x-z, -z'
  16  '-y+z, -x+z, z'
loop_
 _atom_site_type_symbol
 _atom_site_label
 _atom_site_symmetry_multiplicity
 _atom_site_fract_x
 _atom_site_fract_y
 _atom_site_fract_z
 _atom_site_occupancy
  La  La0  2  0.29775500  0.29775500  0.59551000  1.0
  La  La1  1  0.00000000  0.00000000  0.00000000  1.0
  Ni  Ni2  4  0.09273000  0.59273000  0.18546000  1.0
  P  P3  2  0.13133300  0.13133300  0.26266600  1.0
  P  P4  2  0.44984100  0.44984100  0.89968200  1.0
  O  O5  2  0.25000000  0.75000000  0.50000000  1.0
