# generated using pymatgen
data_La3Ni
_symmetry_space_group_name_H-M   Pnma
_cell_length_a   6.61732600
_cell_length_b   7.16310700
_cell_length_c   10.15562000
_cell_angle_alpha   90.00000000
_cell_angle_beta   90.00000000
_cell_angle_gamma   90.00000000
_symmetry_Int_Tables_number   62
_chemical_formula_structural   La3Ni
_chemical_formula_sum   'La12 Ni4'
_cell_volume   481.38262550
_cell_formula_units_Z   4
loop_
 _symmetry_equiv_pos_site_id
 _symmetry_equiv_pos_as_xyz
  1  'x, y, z'
  2  '-x, -y, -z'
  3  'x+1/2, -y+1/2, -z'
  4  '-x+1/2, y+1/2, z'
  5  '-x+1/2, y+1/2, -z+1/2'
  6  'x+1/2, -y+1/2, z+1/2'
  7  '-x, -y, z+1/2'
  8  'x, y, -z+1/2'
loop_
 _atom_site_type_symbol
 _atom_site_label
 _atom_site_symmetry_multiplicity
 _atom_site_fract_x
 _atom_site_fract_y
 _atom_site_fract_z
 _atom_site_occupancy
  La  La0  8  0.17179100  0.17223200  0.06711700  1.0
  La  La1  4  0.14365300  0.46216700  0.75000000  1.0
  Ni  Ni2  4  0.06967100  0.88484400  0.25000000  1.0
