# generated using pymatgen
data_La3SiPd5
_symmetry_space_group_name_H-M   Imma
_cell_length_a   7.55319200
_cell_length_b   8.54081696
_cell_length_c   7.70713000
_cell_angle_alpha   116.82031284
_cell_angle_beta   89.99999999
_cell_angle_gamma   116.24318797
_symmetry_Int_Tables_number   74
_chemical_formula_structural   La3SiPd5
_chemical_formula_sum   'La6 Si2 Pd10'
_cell_volume   385.41035560
_cell_formula_units_Z   2
loop_
 _symmetry_equiv_pos_site_id
 _symmetry_equiv_pos_as_xyz
  1  'x, y, z'
  2  '-x, -y, -z'
  3  '-x+1/2, -y, -y+z+1/2'
  4  'x+1/2, y, y-z+1/2'
  5  'x-y, -y, -z'
  6  '-x+y, y, z'
  7  '-x+y+1/2, y, y-z+1/2'
  8  'x-y+1/2, -y, -y+z+1/2'
loop_
 _atom_site_type_symbol
 _atom_site_label
 _atom_site_symmetry_multiplicity
 _atom_site_fract_x
 _atom_site_fract_y
 _atom_site_fract_z
 _atom_site_occupancy
  La  La0  4  0.04883700  0.09767400  0.27881900  1.0
  La  La1  2  0.25000000  0.50000000  0.11399300  1.0
  Si  Si2  2  0.25000000  0.50000000  0.71018700  1.0
  Pd  Pd3  8  0.08926500  0.78237900  0.32843100  1.0
  Pd  Pd4  2  0.00000000  0.50000000  0.50000000  1.0
