# generated using pymatgen
data_La3Sn7
_symmetry_space_group_name_H-M   Cmmm
_cell_length_a   4.63161800
_cell_length_b   4.73260600
_cell_length_c   13.29850246
_cell_angle_alpha   90.00000000
_cell_angle_beta   100.02864937
_cell_angle_gamma   90.00000000
_symmetry_Int_Tables_number   65
_chemical_formula_structural   La3Sn7
_chemical_formula_sum   'La3 Sn7'
_cell_volume   287.04430387
_cell_formula_units_Z   1
loop_
 _symmetry_equiv_pos_site_id
 _symmetry_equiv_pos_as_xyz
  1  'x, y, z'
  2  '-x, -y, -z'
  3  '-x, y, -z'
  4  'x, -y, z'
  5  'x-z, -y, -z'
  6  '-x+z, y, z'
  7  '-x+z, -y, z'
  8  'x-z, y, -z'
loop_
 _atom_site_type_symbol
 _atom_site_label
 _atom_site_symmetry_multiplicity
 _atom_site_fract_x
 _atom_site_fract_y
 _atom_site_fract_z
 _atom_site_occupancy
  La  La0  2  0.18492100  0.00000000  0.36984200  1.0
  La  La1  1  0.00000000  0.00000000  0.00000000  1.0
  Sn  Sn2  2  0.09565600  0.50000000  0.19131200  1.0
  Sn  Sn3  2  0.28823600  0.50000000  0.57647200  1.0
  Sn  Sn4  2  0.40534100  0.00000000  0.81068200  1.0
  Sn  Sn5  1  0.50000000  0.50000000  0.00000000  1.0
