# generated using pymatgen
data_La3YSb3
_symmetry_space_group_name_H-M   C2
_cell_length_a   8.28204326
_cell_length_b   8.28204326
_cell_length_c   8.33556056
_cell_angle_alpha   109.57311256
_cell_angle_beta   109.38823243
_cell_angle_gamma   109.19069329
_symmetry_Int_Tables_number   5
_chemical_formula_structural   La3YSb3
_chemical_formula_sum   'La6 Y2 Sb6'
_cell_volume   441.54872870
_cell_formula_units_Z   2
loop_
 _symmetry_equiv_pos_site_id
 _symmetry_equiv_pos_as_xyz
  1  'x, y, z'
  2  'y-z, x-z, -z'
loop_
 _atom_site_type_symbol
 _atom_site_label
 _atom_site_symmetry_multiplicity
 _atom_site_fract_x
 _atom_site_fract_y
 _atom_site_fract_z
 _atom_site_occupancy
  La  La0  2  0.14443800  0.25060100  0.75098500  1.0
  La  La1  2  0.35359500  0.60331100  0.60375400  1.0
  La  La2  2  0.86097900  0.10800800  0.10838000  1.0
  Y  Y3  2  0.50052800  0.88956800  0.25043700  1.0
  Sb  Sb4  2  0.12544600  0.50620900  0.12247000  1.0
  Sb  Sb5  2  0.26131600  0.12165100  0.37912700  1.0
  Sb  Sb6  1  0.62481600  0.62481600  0.00000000  1.0
  Sb  Sb7  1  0.86468700  0.36468700  0.50000000  1.0
