# generated using pymatgen
data_La1.5S2
_symmetry_space_group_name_H-M   Pmm2
_cell_length_a   12.78027800
_cell_length_b   12.84757700
_cell_length_c   90.95345700
_cell_angle_alpha   90.00000000
_cell_angle_beta   90.00000000
_cell_angle_gamma   90.00000000
_symmetry_Int_Tables_number   25
_chemical_formula_structural   La1.5S2
_chemical_formula_sum   'La1.5 S2'
_cell_volume   14934.15796139
_cell_formula_units_Z   1
loop_
 _symmetry_equiv_pos_site_id
 _symmetry_equiv_pos_as_xyz
  1  'x, y, z'
  2  'x, -y, -z'
  3  'x, -y, z'
  4  'x, y, -z'
loop_
 _atom_site_type_symbol
 _atom_site_label
 _atom_site_symmetry_multiplicity
 _atom_site_fract_x
 _atom_site_fract_y
 _atom_site_fract_z
 _atom_site_occupancy
  La  La0  2  0.99982300  0.00000000  0.32628600  0.75
  S  S1  2  0.99437700  0.00000000  0.30051700  1.0
