# generated using pymatgen
data_La4SnSb2
_symmetry_space_group_name_H-M   I-42d
_cell_length_a   8.41094771
_cell_length_b   8.41094771
_cell_length_c   8.41094771
_cell_angle_alpha   70.74430753
_cell_angle_beta   70.42090791
_cell_angle_gamma   109.57909209
_symmetry_Int_Tables_number   122
_chemical_formula_structural   La4SnSb2
_chemical_formula_sum   'La8 Sn2 Sb4'
_cell_volume   458.04516299
_cell_formula_units_Z   2
loop_
 _symmetry_equiv_pos_site_id
 _symmetry_equiv_pos_as_xyz
  1  'x, y, z'
  2  'y+z, z, -x-z'
  3  '-x, -x-z, x-y'
  4  '-y-z, x-y, y'
  5  '-y-z+1/2, -y+1/4, -x+y+1/4'
  6  'x+1/2, -z+1/4, -y+1/4'
  7  'y+z+1/2, x+z+1/4, -z+1/4'
  8  '-x+1/2, -x+y+1/4, x+z+1/4'
loop_
 _atom_site_type_symbol
 _atom_site_label
 _atom_site_symmetry_multiplicity
 _atom_site_fract_x
 _atom_site_fract_y
 _atom_site_fract_z
 _atom_site_occupancy
  La  La0  8  0.10481300  0.23012700  0.52055400  1.0
  Sn  Sn1  2  0.00000000  0.00000000  0.00000000  1.0
  Sb  Sb2  4  0.12534100  0.50034100  0.12500000  1.0
