# generated using pymatgen
data_La5Ru2
_symmetry_space_group_name_H-M   C2/c
_cell_length_a   6.72184400
_cell_length_b   7.35036374
_cell_length_c   9.10215779
_cell_angle_alpha   94.82974928
_cell_angle_beta   111.66903320
_cell_angle_gamma   90.00000000
_symmetry_Int_Tables_number   15
_chemical_formula_structural   La5Ru2
_chemical_formula_sum   'La10 Ru4'
_cell_volume   416.22001286
_cell_formula_units_Z   2
loop_
 _symmetry_equiv_pos_site_id
 _symmetry_equiv_pos_as_xyz
  1  'x, y, z'
  2  '-x, -y, -z'
  3  'x-z, -y+1/2, -z'
  4  '-x+z, y+1/2, z'
loop_
 _atom_site_type_symbol
 _atom_site_label
 _atom_site_symmetry_multiplicity
 _atom_site_fract_x
 _atom_site_fract_y
 _atom_site_fract_z
 _atom_site_occupancy
  La  La0  4  0.01938600  0.59231500  0.81509000  1.0
  La  La1  4  0.20770200  0.18359400  0.56903900  1.0
  La  La2  2  0.42163200  0.25000000  0.00000000  1.0
  Ru  Ru3  4  0.17557800  0.92035300  0.77824400  1.0
