# generated using pymatgen
data_La7Ni3
_symmetry_space_group_name_H-M   P6_3mc
_cell_length_a   6.46825100
_cell_length_b   10.10940400
_cell_length_c   10.10940428
_cell_angle_alpha   119.99999910
_cell_angle_beta   90.00000000
_cell_angle_gamma   90.00000000
_symmetry_Int_Tables_number   186
_chemical_formula_structural   La7Ni3
_chemical_formula_sum   'La14 Ni6'
_cell_volume   572.49093856
_cell_formula_units_Z   2
loop_
 _symmetry_equiv_pos_site_id
 _symmetry_equiv_pos_as_xyz
  1  'x, y, z'
  2  'x+1/2, y-z, y'
  3  'x, -z, y-z'
  4  'x+1/2, -y, -z'
  5  'x, -y+z, -y'
  6  'x+1/2, z, -y+z'
  7  'x+1/2, -y, -y+z'
  8  'x, -y+z, z'
  9  'x+1/2, z, y'
  10  'x, y, y-z'
  11  'x+1/2, y-z, -z'
  12  'x, -z, -y'
loop_
 _atom_site_type_symbol
 _atom_site_label
 _atom_site_symmetry_multiplicity
 _atom_site_fract_x
 _atom_site_fract_y
 _atom_site_fract_z
 _atom_site_occupancy
  La  La0  6  0.00788100  0.25299200  0.12649600  1.0
  La  La1  6  0.18000400  0.07639900  0.53820000  1.0
  La  La2  2  0.21941500  0.66666667  0.33333333  1.0
  Ni  Ni3  6  0.44864300  0.37443000  0.18721500  1.0
