# generated using pymatgen
data_La7Pd3
_symmetry_space_group_name_H-M   P6_3mc
_cell_length_a   6.63058600
_cell_length_b   10.38852000
_cell_length_c   10.38851980
_cell_angle_alpha   120.00000063
_cell_angle_beta   90.00000000
_cell_angle_gamma   90.00000000
_symmetry_Int_Tables_number   186
_chemical_formula_structural   La7Pd3
_chemical_formula_sum   'La14 Pd6'
_cell_volume   619.71198216
_cell_formula_units_Z   2
loop_
 _symmetry_equiv_pos_site_id
 _symmetry_equiv_pos_as_xyz
  1  'x, y, z'
  2  'x+1/2, z, -y+z'
  3  'x, -y+z, -y'
  4  'x+1/2, -y, -z'
  5  'x, -z, y-z'
  6  'x+1/2, y-z, y'
  7  'x+1/2, y-z, -z'
  8  'x, y, y-z'
  9  'x+1/2, z, y'
  10  'x, -y+z, z'
  11  'x+1/2, -y, -y+z'
  12  'x, -z, -y'
loop_
 _atom_site_type_symbol
 _atom_site_label
 _atom_site_symmetry_multiplicity
 _atom_site_fract_x
 _atom_site_fract_y
 _atom_site_fract_z
 _atom_site_occupancy
  La  La0  6  0.06101400  0.53838700  0.07677400  1.0
  La  La1  6  0.25092700  0.12566900  0.25133800  1.0
  La  La2  2  0.04197300  0.33333333  0.66666667  1.0
  Pd  Pd3  6  0.30977000  0.37570500  0.18785200  1.0
