# generated using pymatgen
data_La7Ru3
_symmetry_space_group_name_H-M   Pnma
_cell_length_a   6.75953800
_cell_length_b   7.41355000
_cell_length_c   23.77622600
_cell_angle_alpha   90.00000000
_cell_angle_beta   90.00000000
_cell_angle_gamma   90.00000000
_symmetry_Int_Tables_number   62
_chemical_formula_structural   La7Ru3
_chemical_formula_sum   'La28 Ru12'
_cell_volume   1191.47834917
_cell_formula_units_Z   4
loop_
 _symmetry_equiv_pos_site_id
 _symmetry_equiv_pos_as_xyz
  1  'x, y, z'
  2  '-x, -y, -z'
  3  'x+1/2, -y+1/2, -z'
  4  '-x+1/2, y+1/2, z'
  5  '-x+1/2, y+1/2, -z+1/2'
  6  'x+1/2, -y+1/2, z+1/2'
  7  '-x, -y, z+1/2'
  8  'x, y, -z+1/2'
loop_
 _atom_site_type_symbol
 _atom_site_label
 _atom_site_symmetry_multiplicity
 _atom_site_fract_x
 _atom_site_fract_y
 _atom_site_fract_z
 _atom_site_occupancy
  La  La0  8  0.14911300  0.05043700  0.61471500  1.0
  La  La1  8  0.18061900  0.33013200  0.02387000  1.0
  La  La2  8  0.18210900  0.31924500  0.17469500  1.0
  La  La3  4  0.14284900  0.31717300  0.75000000  1.0
  Ru  Ru4  8  0.02859500  0.62052200  0.09495700  1.0
  Ru  Ru5  4  0.02866000  0.01920100  0.25000000  1.0
