# generated using pymatgen
data_La7Rh3
_symmetry_space_group_name_H-M   P6_3mc
_cell_length_a   6.48820400
_cell_length_b   10.31586325
_cell_length_c   10.31586375
_cell_angle_alpha   120.00000321
_cell_angle_beta   90.00000000
_cell_angle_gamma   90.00000000
_symmetry_Int_Tables_number   186
_chemical_formula_structural   La7Rh3
_chemical_formula_sum   'La14 Rh6'
_cell_volume   597.95195178
_cell_formula_units_Z   2
loop_
 _symmetry_equiv_pos_site_id
 _symmetry_equiv_pos_as_xyz
  1  'x, y, z'
  2  'x+1/2, z, -y+z'
  3  'x, -y+z, -y'
  4  'x+1/2, -y, -z'
  5  'x, -z, y-z'
  6  'x+1/2, y-z, y'
  7  'x+1/2, -y, -y+z'
  8  'x, -z, -y'
  9  'x+1/2, y-z, -z'
  10  'x, y, y-z'
  11  'x+1/2, z, y'
  12  'x, -y+z, z'
loop_
 _atom_site_type_symbol
 _atom_site_label
 _atom_site_symmetry_multiplicity
 _atom_site_fract_x
 _atom_site_fract_y
 _atom_site_fract_z
 _atom_site_occupancy
  La  La0  6  0.23589400  0.12511600  0.25023200  1.0
  La  La1  6  0.40687000  0.54218800  0.08437600  1.0
  La  La2  2  0.43287600  0.33333333  0.66666667  1.0
  Rh  Rh3  6  0.14376900  0.37994600  0.18997300  1.0
