# generated using pymatgen
data_Li0.98Mg0.02Ti2O4
_symmetry_space_group_name_H-M   P2/m
_cell_length_a   2.93089500
_cell_length_b   4.78894300
_cell_length_c   4.83256870
_cell_angle_alpha   90.94744640
_cell_angle_beta   90.00000000
_cell_angle_gamma   90.00000000
_symmetry_Int_Tables_number   10
_chemical_formula_structural   Li0.98Mg0.02Ti2O4
_chemical_formula_sum   'Li0.98 Mg0.02 Ti2 O4'
_cell_volume   67.82012485
_cell_formula_units_Z   1
loop_
 _symmetry_equiv_pos_site_id
 _symmetry_equiv_pos_as_xyz
  1  'x, y, z'
  2  '-x, -y, -z'
  3  'x, -y, -z'
  4  '-x, y, z'
loop_
 _atom_site_type_symbol
 _atom_site_label
 _atom_site_symmetry_multiplicity
 _atom_site_fract_x
 _atom_site_fract_y
 _atom_site_fract_z
 _atom_site_occupancy
  Li  Li0  1  0.50000000  0.50000000  0.00000000  0.98
  Mg  Mg1  1  0.50000000  0.50000000  0.00000000  0.02
  Ti  Ti2  1  0.00000000  0.00000000  0.00000000  1.0
  Ti  Ti3  1  0.50000000  0.50000000  0.50000000  1.0
  O  O4  2  0.00000000  0.33198300  0.73458300  1.0
  O  O5  2  0.50000000  0.17938200  0.21599100  1.0
