# generated using pymatgen
data_Li1.36Nb2O4
_symmetry_space_group_name_H-M   R-3
_cell_length_a   5.28484769
_cell_length_b   5.28484769
_cell_length_c   5.72653564
_cell_angle_alpha   62.52025032
_cell_angle_beta   62.52025032
_cell_angle_gamma   60.00000380
_symmetry_Int_Tables_number   148
_chemical_formula_structural   Li1.36Nb2O4
_chemical_formula_sum   'Li1.36 Nb2 O4'
_cell_volume   117.21291792
_cell_formula_units_Z   1
loop_
 _symmetry_equiv_pos_site_id
 _symmetry_equiv_pos_as_xyz
  1  'x, y, z'
  2  '-x, -y, -z'
  3  'y, -x-y-z, z'
  4  '-y, x+y+z, -z'
  5  '-x-y-z, x, z'
  6  'x+y+z, -x, -z'
loop_
 _atom_site_type_symbol
 _atom_site_label
 _atom_site_symmetry_multiplicity
 _atom_site_fract_x
 _atom_site_fract_y
 _atom_site_fract_z
 _atom_site_occupancy
  Li  Li0  2  0.36219000  0.36219000  0.91343000  0.6799999999999999
  Nb  Nb1  2  0.14439100  0.14439100  0.56682700  1.0
  O  O2  6  0.04583700  0.78391600  0.73239600  0.6666666666666667
