# generated using pymatgen
data_Li1.96Mg0.04Ti4O8
_symmetry_space_group_name_H-M   P2_1/m
_cell_length_a   5.14441200
_cell_length_b   5.30149803
_cell_length_c   5.99503600
_cell_angle_alpha   90.00000000
_cell_angle_beta   90.00000000
_cell_angle_gamma   90.68874421
_symmetry_Int_Tables_number   11
_chemical_formula_structural   Li1.96Mg0.04Ti4O8
_chemical_formula_sum   'Li1.96 Mg0.04 Ti4 O8'
_cell_volume   163.49134384
_cell_formula_units_Z   1
loop_
 _symmetry_equiv_pos_site_id
 _symmetry_equiv_pos_as_xyz
  1  'x, y, z'
  2  '-x, -y, -z'
  3  '-x, -y, z+1/2'
  4  'x, y, -z+1/2'
loop_
 _atom_site_type_symbol
 _atom_site_label
 _atom_site_symmetry_multiplicity
 _atom_site_fract_x
 _atom_site_fract_y
 _atom_site_fract_z
 _atom_site_occupancy
  Li  Li0  2  0.32287700  0.43720900  0.75000000  0.98
  Mg  Mg1  2  0.32287700  0.43720900  0.75000000  0.02
  Ti  Ti2  2  0.02505500  0.01489600  0.25000000  1.0
  Ti  Ti3  2  0.50000000  0.00000000  0.00000000  1.0
  O  O4  4  0.16734000  0.19785600  0.51083300  1.0
  O  O5  2  0.33381700  0.80183700  0.75000000  1.0
  O  O6  2  0.34268100  0.79587000  0.25000000  1.0
