# generated using pymatgen
data_Li1.36Nb2O4
_symmetry_space_group_name_H-M   R3c
_cell_length_a   5.22299002
_cell_length_b   5.22299002
_cell_length_c   5.59239885
_cell_angle_alpha   62.16206766
_cell_angle_beta   62.16206766
_cell_angle_gamma   59.99999968
_symmetry_Int_Tables_number   161
_chemical_formula_structural   Li1.36Nb2O4
_chemical_formula_sum   'Li1.36 Nb2 O4'
_cell_volume   111.26706321
_cell_formula_units_Z   1
loop_
 _symmetry_equiv_pos_site_id
 _symmetry_equiv_pos_as_xyz
  1  'x, y, z'
  2  '-x-y-z, x, z'
  3  'y, -x-y-z, z'
  4  'x+1/2, -x-y-z+1/2, z+1/2'
  5  '-x-y-z+1/2, y+1/2, z+1/2'
  6  'y+1/2, x+1/2, z+1/2'
loop_
 _atom_site_type_symbol
 _atom_site_label
 _atom_site_symmetry_multiplicity
 _atom_site_fract_x
 _atom_site_fract_y
 _atom_site_fract_z
 _atom_site_occupancy
  Li  Li0  2  0.28283200  0.28283200  0.15150400  0.6799999999999999
  Nb  Nb1  2  0.00076900  0.00076900  0.99769300  1.0
  O  O2  6  0.10963200  0.36031600  0.81000100  0.6666666666666667
