# generated using pymatgen
data_Li0.98Mg0.02Ti2O4
_symmetry_space_group_name_H-M   Imm2
_cell_length_a   3.83832600
_cell_length_b   4.06507200
_cell_length_c   5.34922854
_cell_angle_alpha   112.33170432
_cell_angle_beta   111.02490938
_cell_angle_gamma   90.00000001
_symmetry_Int_Tables_number   44
_chemical_formula_structural   Li0.98Mg0.02Ti2O4
_chemical_formula_sum   'Li0.98 Mg0.02 Ti2 O4'
_cell_volume   71.16070994
_cell_formula_units_Z   1
loop_
 _symmetry_equiv_pos_site_id
 _symmetry_equiv_pos_as_xyz
  1  'x, y, z'
  2  '-x+z, -y+z, z'
  3  '-x+z, y, z'
  4  'x, -y+z, z'
loop_
 _atom_site_type_symbol
 _atom_site_label
 _atom_site_symmetry_multiplicity
 _atom_site_fract_x
 _atom_site_fract_y
 _atom_site_fract_z
 _atom_site_occupancy
  Li  Li0  1  0.32373900  0.32373900  0.64747800  0.98
  Mg  Mg1  1  0.32373900  0.32373900  0.64747800  0.02
  Ti  Ti2  1  0.11282800  0.61282800  0.22565600  1.0
  Ti  Ti3  1  0.89133100  0.89133100  0.78266200  1.0
  O  O4  1  0.10617200  0.10617200  0.21234400  1.0
  O  O5  1  0.34723700  0.84723700  0.69447400  1.0
  O  O6  1  0.65565700  0.65565700  0.31131400  1.0
  O  O7  1  0.89538600  0.39538600  0.79077200  1.0
