# generated using pymatgen
data_Li3.92Mg0.08Ti8O16
_symmetry_space_group_name_H-M   Pnnm
_cell_length_a   3.81329100
_cell_length_b   8.21001000
_cell_length_c   9.16736900
_cell_angle_alpha   90.00000000
_cell_angle_beta   90.00000000
_cell_angle_gamma   90.00000000
_symmetry_Int_Tables_number   58
_chemical_formula_structural   Li3.92Mg0.08Ti8O16
_chemical_formula_sum   'Li3.92 Mg0.08 Ti8 O16'
_cell_volume   287.00426279
_cell_formula_units_Z   1
loop_
 _symmetry_equiv_pos_site_id
 _symmetry_equiv_pos_as_xyz
  1  'x, y, z'
  2  '-x, -y, -z'
  3  'x, -y, -z'
  4  '-x, y, z'
  5  '-x+1/2, y+1/2, -z+1/2'
  6  'x+1/2, -y+1/2, z+1/2'
  7  '-x+1/2, -y+1/2, z+1/2'
  8  'x+1/2, y+1/2, -z+1/2'
loop_
 _atom_site_type_symbol
 _atom_site_label
 _atom_site_symmetry_multiplicity
 _atom_site_fract_x
 _atom_site_fract_y
 _atom_site_fract_z
 _atom_site_occupancy
  Li  Li0  4  0.00000000  0.12269400  0.15924300  0.98
  Mg  Mg1  4  0.00000000  0.12269400  0.15924300  0.02
  Ti  Ti2  4  0.00000000  0.11663900  0.60621700  1.0
  Ti  Ti3  4  0.00000000  0.35979600  0.38426900  1.0
  O  O4  4  0.00000000  0.11589900  0.84402000  1.0
  O  O5  4  0.00000000  0.12547300  0.38604600  1.0
  O  O6  4  0.00000000  0.36504800  0.15020400  1.0
  O  O7  4  0.00000000  0.37519600  0.59356800  1.0
