# generated using pymatgen
data_Li1.96Mg0.04Ti4O8
_symmetry_space_group_name_H-M   C2/m
_cell_length_a   4.01630100
_cell_length_b   6.34097021
_cell_length_c   6.59792968
_cell_angle_alpha   106.21138362
_cell_angle_beta   90.00000000
_cell_angle_gamma   108.46314538
_symmetry_Int_Tables_number   12
_chemical_formula_structural   Li1.96Mg0.04Ti4O8
_chemical_formula_sum   'Li1.96 Mg0.04 Ti4 O8'
_cell_volume   152.32201529
_cell_formula_units_Z   1
loop_
 _symmetry_equiv_pos_site_id
 _symmetry_equiv_pos_as_xyz
  1  'x, y, z'
  2  '-x, -y, -z'
  3  'x-y, -y, -z'
  4  '-x+y, y, z'
loop_
 _atom_site_type_symbol
 _atom_site_label
 _atom_site_symmetry_multiplicity
 _atom_site_fract_x
 _atom_site_fract_y
 _atom_site_fract_z
 _atom_site_occupancy
  Li  Li0  2  0.05707800  0.11415700  0.34926800  0.98
  Mg  Mg1  2  0.05707800  0.11415700  0.34926800  0.02
  Ti  Ti2  2  0.28936500  0.57872900  0.71457300  1.0
  Ti  Ti3  2  0.38646900  0.77293800  0.29113100  1.0
  O  O4  2  0.11456600  0.22913300  0.67353300  1.0
  O  O5  2  0.22680000  0.45359900  0.34367800  1.0
  O  O6  2  0.35084900  0.70169700  0.99925600  1.0
  O  O7  2  0.43970900  0.87941700  0.64160400  1.0
