# generated using pymatgen
data_Li1.96Mg0.04Ti4O8
_symmetry_space_group_name_H-M   Imma
_cell_length_a   5.94241000
_cell_length_b   5.96024085
_cell_length_c   5.96024085
_cell_angle_alpha   60.41730682
_cell_angle_beta   60.09891314
_cell_angle_gamma   60.09891315
_symmetry_Int_Tables_number   74
_chemical_formula_structural   Li1.96Mg0.04Ti4O8
_chemical_formula_sum   'Li1.96 Mg0.04 Ti4 O8'
_cell_volume   149.96089210
_cell_formula_units_Z   1
loop_
 _symmetry_equiv_pos_site_id
 _symmetry_equiv_pos_as_xyz
  1  'x, y, z'
  2  '-x, -y, -z'
  3  '-x-y-z, z+1/2, y+1/2'
  4  'x+y+z, -z+1/2, -y+1/2'
  5  'x+y+z, -y, -z'
  6  '-x-y-z, y, z'
  7  '-x, -z+1/2, -y+1/2'
  8  'x, z+1/2, y+1/2'
loop_
 _atom_site_type_symbol
 _atom_site_label
 _atom_site_symmetry_multiplicity
 _atom_site_fract_x
 _atom_site_fract_y
 _atom_site_fract_z
 _atom_site_occupancy
  Li  Li0  2  0.00000000  0.00000000  0.50000000  0.98
  Mg  Mg1  2  0.00000000  0.00000000  0.50000000  0.02
  Ti  Ti2  2  0.00000000  0.00000000  0.00000000  1.0
  Ti  Ti3  2  0.00000000  0.50000000  0.00000000  1.0
  O  O4  4  0.21160100  0.26021700  0.76021700  1.0
  O  O5  4  0.23724000  0.28007200  0.24544800  1.0
