# generated using pymatgen
data_Li3.96V24O60
_symmetry_space_group_name_H-M   P2_1/c
_cell_length_a   7.30919000
_cell_length_b   10.27281000
_cell_length_c   15.37879759
_cell_angle_alpha   107.17221716
_cell_angle_beta   90.00000000
_cell_angle_gamma   90.00000000
_symmetry_Int_Tables_number   14
_chemical_formula_structural   Li3.96V24O60
_chemical_formula_sum   'Li3.96 V24 O60'
_cell_volume   1103.25514489
_cell_formula_units_Z   1
loop_
 _symmetry_equiv_pos_site_id
 _symmetry_equiv_pos_as_xyz
  1  'x, y, z'
  2  '-x, -y, -z'
  3  'x+1/2, -y+1/2, -z+1/2'
  4  '-x+1/2, y+1/2, z+1/2'
loop_
 _atom_site_type_symbol
 _atom_site_label
 _atom_site_symmetry_multiplicity
 _atom_site_fract_x
 _atom_site_fract_y
 _atom_site_fract_z
 _atom_site_occupancy
  Li  Li0  4  0.12106800  0.58772500  0.23788900  0.99
  V  V1  4  0.12281800  0.48344700  0.58920300  1.0
  V  V2  4  0.12298800  0.37350300  0.96033800  1.0
  V  V3  4  0.12474700  0.24404900  0.13494400  1.0
  V  V4  4  0.12488700  0.25154300  0.37209500  1.0
  V  V5  4  0.12689900  0.12363800  0.53941800  1.0
  V  V6  4  0.12941600  0.01942200  0.91204600  1.0
  O  O7  4  0.08887700  0.45801200  0.68865700  1.0
  O  O8  4  0.11133000  0.33214600  0.85046600  1.0
  O  O9  4  0.11558100  0.01442200  0.07283300  1.0
  O  O10  4  0.12310000  0.69058800  0.61614500  1.0
  O  O11  4  0.12391200  0.57802100  0.00519800  1.0
  O  O12  4  0.12418600  0.08931100  0.35950500  1.0
  O  O13  4  0.12421200  0.20877100  0.98460900  1.0
  O  O14  4  0.12500600  0.25114000  0.25004700  1.0
  O  O15  4  0.12549300  0.40680600  0.13862400  1.0
  O  O16  4  0.12605100  0.91986400  0.48938200  1.0
  O  O17  4  0.12625000  0.28374800  0.51213100  1.0
  O  O18  4  0.12772100  0.80969100  0.88353900  1.0
  O  O19  4  0.13390900  0.48929500  0.44319700  1.0
  O  O20  4  0.13930900  0.16537800  0.64929600  1.0
  O  O21  4  0.15490300  0.03935400  0.81150100  1.0
