# generated using pymatgen
data_Li1.8Nb4O8
_symmetry_space_group_name_H-M   Pnnm
_cell_length_a   2.97299900
_cell_length_b   5.16517600
_cell_length_c   10.72680000
_cell_angle_alpha   90.00000000
_cell_angle_beta   90.00000000
_cell_angle_gamma   90.00000000
_symmetry_Int_Tables_number   58
_chemical_formula_structural   Li1.8Nb4O8
_chemical_formula_sum   'Li1.8 Nb4 O8'
_cell_volume   164.72141748
_cell_formula_units_Z   1
loop_
 _symmetry_equiv_pos_site_id
 _symmetry_equiv_pos_as_xyz
  1  'x, y, z'
  2  '-x, -y, -z'
  3  'x, -y, -z'
  4  '-x, y, z'
  5  '-x+1/2, y+1/2, -z+1/2'
  6  'x+1/2, -y+1/2, z+1/2'
  7  '-x+1/2, -y+1/2, z+1/2'
  8  'x+1/2, y+1/2, -z+1/2'
loop_
 _atom_site_type_symbol
 _atom_site_label
 _atom_site_symmetry_multiplicity
 _atom_site_fract_x
 _atom_site_fract_y
 _atom_site_fract_z
 _atom_site_occupancy
  Li  Li0  2  0.00000000  0.00000000  0.00000000  0.9
  Nb  Nb1  4  0.00000000  0.33646000  0.75695800  1.0
  O  O2  4  0.00000000  0.31814100  0.13781500  1.0
  O  O3  4  0.00000000  0.34471800  0.36981300  1.0
