# generated using pymatgen
data_Li6Ti9O20
_symmetry_space_group_name_H-M   C2/m
_cell_length_a   5.97374389
_cell_length_b   5.97374389
_cell_length_c   24.69447778
_cell_angle_alpha   83.10688743
_cell_angle_beta   83.10688743
_cell_angle_gamma   60.01657020
_symmetry_Int_Tables_number   12
_chemical_formula_structural   Li6Ti9O20
_chemical_formula_sum   'Li12 Ti18 O40'
_cell_volume   755.93498692
_cell_formula_units_Z   2
loop_
 _symmetry_equiv_pos_site_id
 _symmetry_equiv_pos_as_xyz
  1  'x, y, z'
  2  '-x, -y, -z'
  3  '-y, -x, -z'
  4  'y, x, z'
loop_
 _atom_site_type_symbol
 _atom_site_label
 _atom_site_symmetry_multiplicity
 _atom_site_fract_x
 _atom_site_fract_y
 _atom_site_fract_z
 _atom_site_occupancy
  Li  Li0  2  0.02864700  0.02864700  0.92593500  1.0
  Li  Li1  2  0.17568200  0.17568200  0.47334700  1.0
  Li  Li2  2  0.22441100  0.22441100  0.32602100  1.0
  Li  Li3  2  0.36932100  0.36932100  0.87766600  1.0
  Li  Li4  2  0.42702800  0.42702800  0.72527200  1.0
  Li  Li5  1  0.50000000  0.50000000  0.00000000  1.0
  Li  Li6  1  0.50000000  0.50000000  0.50000000  1.0
  Ti  Ti7  4  0.09563600  0.59829700  0.20066800  1.0
  Ti  Ti8  4  0.20639300  0.69255800  0.40217400  1.0
  Ti  Ti9  2  0.00000000  0.50000000  0.00000000  1.0
  Ti  Ti10  2  0.09808000  0.09808000  0.69827800  1.0
  Ti  Ti11  2  0.10099200  0.10099200  0.19876300  1.0
  Ti  Ti12  2  0.30423000  0.30423000  0.59782400  1.0
  Ti  Ti13  2  0.31236600  0.31236600  0.09597200  1.0
  O  O14  4  0.01597100  0.56999400  0.84601700  1.0
  O  O15  4  0.03301200  0.58680900  0.35162000  1.0
  O  O16  4  0.15287000  0.61249200  0.05104600  1.0
  O  O17  4  0.17206100  0.63449400  0.55735700  1.0
  O  O18  4  0.21597100  0.76829500  0.24766200  1.0
  O  O19  2  0.03109100  0.03109100  0.35213900  1.0
  O  O20  2  0.05328600  0.05328600  0.84189500  1.0
  O  O21  2  0.14775700  0.14775700  0.55669500  1.0
  O  O22  2  0.16547800  0.16547800  0.04851900  1.0
  O  O23  2  0.23273400  0.23273400  0.75209400  1.0
  O  O24  2  0.25237200  0.25237200  0.24306900  1.0
  O  O25  2  0.33616800  0.33616800  0.95932800  1.0
  O  O26  2  0.36447600  0.36447600  0.44227200  1.0
  O  O27  2  0.43279400  0.43279400  0.15285300  1.0
  O  O28  2  0.45218900  0.45218900  0.64300400  1.0
