# generated using pymatgen
data_Li6Ti9O20
_symmetry_space_group_name_H-M   C2/m
_cell_length_a   5.97432377
_cell_length_b   5.98326323
_cell_length_c   49.07081166
_cell_angle_alpha   86.52581650
_cell_angle_beta   86.50999221
_cell_angle_gamma   60.04941514
_symmetry_Int_Tables_number   12
_chemical_formula_structural   Li6Ti9O20
_chemical_formula_sum   'Li24 Ti36 O80'
_cell_volume   1516.09191367
_cell_formula_units_Z   4
loop_
 _symmetry_equiv_pos_site_id
 _symmetry_equiv_pos_as_xyz
  1  'x, y, z'
  2  '-x+29/40, -y+29/40, -z+33/40'
  3  'x+y+z+29/40, -y+29/40, -z+33/40'
  4  '-x-y-z, y, z'
loop_
 _atom_site_type_symbol
 _atom_site_label
 _atom_site_symmetry_multiplicity
 _atom_site_fract_x
 _atom_site_fract_y
 _atom_site_fract_z
 _atom_site_occupancy
  Li  Li0  2  0.00371689  0.99390734  0.99865888  1.0
  Li  Li1  2  0.02025217  0.03554385  0.92395181  1.0
  Li  Li2  2  0.09978975  0.09928923  0.70113127  1.0
  Li  Li3  2  0.12460136  0.12483823  0.62595905  1.0
  Li  Li4  2  0.20002493  0.19996875  0.39998139  1.0
  Li  Li5  2  0.21267237  0.71168919  0.86296607  1.0
  Li  Li6  2  0.22493983  0.22509768  0.32502266  1.0
  Li  Li7  2  0.30242422  0.29918656  0.09596500  1.0
  Li  Li8  2  0.32239221  0.33130428  0.02391130  1.0
  Li  Li9  2  0.76195975  0.76002611  0.71605439  1.0
  Li  Li10  2  0.79996822  0.79987429  0.60018927  1.0
  Li  Li11  2  0.82492009  0.82507469  0.52508513  1.0
  Ti  Ti12  4  0.01252074  0.01249570  0.46251043  1.0
  Ti  Ti13  4  0.01943476  0.50119802  0.96158513  1.0
  Ti  Ti14  4  0.10454721  0.61575463  0.66410352  1.0
  Ti  Ti15  4  0.30887874  0.81326926  0.06342177  1.0
  Ti  Ti16  4  0.31267070  0.31266076  0.56264524  1.0
  Ti  Ti17  2  0.01251603  0.51245768  0.46251026  1.0
  Ti  Ti18  2  0.07197356  0.04040848  0.81564440  1.0
  Ti  Ti19  2  0.10931405  0.62045965  0.16091225  1.0
  Ti  Ti20  2  0.16247923  0.16251497  0.51252657  1.0
  Ti  Ti21  2  0.26289468  0.26286961  0.21134103  1.0
  Ti  Ti22  2  0.31267450  0.81200901  0.56264199  1.0
  Ti  Ti23  2  0.81334940  0.31090245  0.06239875  1.0
  Ti  Ti24  1  0.36250000  0.36250000  0.91250000  1.0
  Ti  Ti25  1  0.86250000  0.86250000  0.41250000  1.0
  O  O26  4  0.00367821  0.00402207  0.53880256  1.0
  O  O27  4  0.02144080  0.02110666  0.38624208  1.0
  O  O28  4  0.05936774  0.60236743  0.74063520  1.0
  O  O29  4  0.07610884  0.50089329  0.88716973  1.0
  O  O30  4  0.10412121  0.10443477  0.23876459  1.0
  O  O31  4  0.21976888  0.22141877  0.78399621  1.0
  O  O32  4  0.26545123  0.79637547  0.14218634  1.0
  O  O33  4  0.30622697  0.30657511  0.63827118  1.0
  O  O34  4  0.32141474  0.32106045  0.48623030  1.0
  O  O35  4  0.35267697  0.91781926  0.83630418  1.0
  O  O36  2  0.00398015  0.45325755  0.53878215  1.0
  O  O37  2  0.02114144  0.57145327  0.38626385  1.0
  O  O38  2  0.02808903  0.06128831  0.88253363  1.0
  O  O39  2  0.08739895  0.08518409  0.74001801  1.0
  O  O40  2  0.10441809  0.55241692  0.23874690  1.0
  O  O41  2  0.12547911  0.66451080  0.08453098  1.0
  O  O42  2  0.13883477  0.13859568  0.58373478  1.0
  O  O43  2  0.18616834  0.18641305  0.44125027  1.0
  O  O44  2  0.20199258  0.65762739  0.93838745  1.0
  O  O45  2  0.21955533  0.77581846  0.78507088  1.0
  O  O46  2  0.23882263  0.23857154  0.28378320  1.0
  O  O47  2  0.28603258  0.28632148  0.14161336  1.0
  O  O48  2  0.30651832  0.74869873  0.63826463  1.0
  O  O49  2  0.32111451  0.87151677  0.48625421  1.0
  O  O50  2  0.32478320  0.36681930  0.98361430  1.0
  O  O51  2  0.73826302  0.74019325  0.78328071  1.0
  O  O52  2  0.78632941  0.78630005  0.64104113  1.0
  O  O53  2  0.79609481  0.26562874  0.14218164  1.0
  O  O54  2  0.82123697  0.37014074  0.98738532  1.0
  O  O55  2  0.83883914  0.83857980  0.48374192  1.0
