# generated using pymatgen
data_LiTi2O4
_symmetry_space_group_name_H-M   P6_3mc
_cell_length_a   5.93802400
_cell_length_b   5.93802345
_cell_length_c   9.63637900
_cell_angle_alpha   90.00000000
_cell_angle_beta   90.00000000
_cell_angle_gamma   120.00000305
_symmetry_Int_Tables_number   186
_chemical_formula_structural   LiTi2O4
_chemical_formula_sum   'Li4 Ti8 O16'
_cell_volume   294.25804671
_cell_formula_units_Z   4
loop_
 _symmetry_equiv_pos_site_id
 _symmetry_equiv_pos_as_xyz
  1  'x, y, z'
  2  'x-y, x, z+1/2'
  3  '-y, x-y, z'
  4  '-x, -y, z+1/2'
  5  '-x+y, -x, z'
  6  'y, -x+y, z+1/2'
  7  'y, x, z+1/2'
  8  'x, x-y, z'
  9  'x-y, -y, z+1/2'
  10  '-y, -x, z'
  11  '-x, -x+y, z+1/2'
  12  '-x+y, y, z'
loop_
 _atom_site_type_symbol
 _atom_site_label
 _atom_site_symmetry_multiplicity
 _atom_site_fract_x
 _atom_site_fract_y
 _atom_site_fract_z
 _atom_site_occupancy
  Li  Li0  2  0.00000000  0.00000000  0.00495200  1.0
  Li  Li1  2  0.33333333  0.66666667  0.60626500  1.0
  Ti  Ti2  6  0.17088400  0.34176800  0.28453500  1.0
  Ti  Ti3  2  0.33333333  0.66666667  0.01111900  1.0
  O  O4  6  0.03984400  0.51992200  0.15924700  1.0
  O  O5  6  0.16632400  0.83367600  0.90165900  1.0
  O  O6  2  0.00000000  0.00000000  0.19007900  1.0
  O  O7  2  0.33333333  0.66666667  0.39710300  1.0
