# generated using pymatgen
data_Li1.5Ti3O6
_symmetry_space_group_name_H-M   C2/m
_cell_length_a   5.09515321
_cell_length_b   5.09515321
_cell_length_c   5.27457118
_cell_angle_alpha   99.18221348
_cell_angle_beta   99.18221348
_cell_angle_gamma   119.90632139
_symmetry_Int_Tables_number   12
_chemical_formula_structural   Li1.5Ti3O6
_chemical_formula_sum   'Li1.5 Ti3 O6'
_cell_volume   112.50813526
_cell_formula_units_Z   1
loop_
 _symmetry_equiv_pos_site_id
 _symmetry_equiv_pos_as_xyz
  1  'x, y, z'
  2  '-x, -y, -z'
  3  '-y, -x, -z'
  4  'y, x, z'
loop_
 _atom_site_type_symbol
 _atom_site_label
 _atom_site_symmetry_multiplicity
 _atom_site_fract_x
 _atom_site_fract_y
 _atom_site_fract_z
 _atom_site_occupancy
  Li  Li0  2  0.16737300  0.83262700  0.50000000  0.75
  Ti  Ti1  2  0.33747400  0.66252600  0.00000000  1.0
  Ti  Ti2  1  0.00000000  0.00000000  0.00000000  1.0
  O  O3  4  0.06441000  0.40711000  0.22122500  1.0
  O  O4  2  0.24831900  0.24831900  0.77343600  1.0
