# generated using pymatgen
data_LiTi2O4
_symmetry_space_group_name_H-M   P2_1/m
_cell_length_a   3.85105100
_cell_length_b   8.24631700
_cell_length_c   9.05297884
_cell_angle_alpha   89.96343137
_cell_angle_beta   90.00000000
_cell_angle_gamma   90.00000000
_symmetry_Int_Tables_number   11
_chemical_formula_structural   LiTi2O4
_chemical_formula_sum   'Li4 Ti8 O16'
_cell_volume   287.49527576
_cell_formula_units_Z   4
loop_
 _symmetry_equiv_pos_site_id
 _symmetry_equiv_pos_as_xyz
  1  'x, y, z'
  2  '-x, -y, -z'
  3  'x+1/2, -y, -z'
  4  '-x+1/2, y, z'
loop_
 _atom_site_type_symbol
 _atom_site_label
 _atom_site_symmetry_multiplicity
 _atom_site_fract_x
 _atom_site_fract_y
 _atom_site_fract_z
 _atom_site_occupancy
  Li  Li0  2  0.25000000  0.24928400  0.59218600  1.0
  Li  Li1  2  0.25000000  0.49674000  0.90179500  1.0
  Ti  Ti2  2  0.25000000  0.00989000  0.36297100  1.0
  Ti  Ti3  2  0.25000000  0.23818200  0.14185500  1.0
  Ti  Ti4  2  0.25000000  0.48705600  0.35986600  1.0
  Ti  Ti5  2  0.25000000  0.77566000  0.13024300  1.0
  O  O6  2  0.25000000  0.00240100  0.14083500  1.0
  O  O7  2  0.25000000  0.00775900  0.59819000  1.0
  O  O8  2  0.25000000  0.25158000  0.36436500  1.0
  O  O9  2  0.25000000  0.25346600  0.90361100  1.0
  O  O10  2  0.25000000  0.49249100  0.60047000  1.0
  O  O11  2  0.25000000  0.50107800  0.14501300  1.0
  O  O12  2  0.25000000  0.74148600  0.89966800  1.0
  O  O13  2  0.25000000  0.74897400  0.34240000  1.0
