# generated using pymatgen
data_LiTi2O4
_symmetry_space_group_name_H-M   Fddd
_cell_length_a   5.18007067
_cell_length_b   5.18007067
_cell_length_c   9.02317543
_cell_angle_alpha   100.03666878
_cell_angle_beta   100.03666870
_cell_angle_gamma   113.13183795
_symmetry_Int_Tables_number   70
_chemical_formula_structural   LiTi2O4
_chemical_formula_sum   'Li3 Ti6 O12'
_cell_volume   211.22258241
_cell_formula_units_Z   3
loop_
 _symmetry_equiv_pos_site_id
 _symmetry_equiv_pos_as_xyz
  1  'x, y, z'
  2  '-x+z, -y+z, z'
  3  'y-z, x-z, -z'
  4  '-y, -x, -z'
  5  '-x+1/4, -y+3/4, -z+1/2'
  6  'x-z+1/4, y-z+3/4, -z+1/2'
  7  '-y+z+1/4, -x+z+3/4, z+1/2'
  8  'y+1/4, x+3/4, z+1/2'
loop_
 _atom_site_type_symbol
 _atom_site_label
 _atom_site_symmetry_multiplicity
 _atom_site_fract_x
 _atom_site_fract_y
 _atom_site_fract_z
 _atom_site_occupancy
  Li  Li0  4  0.08099900  0.58099900  0.16199800  0.75
  Ti  Ti1  4  0.33510300  0.33510300  0.67020600  1.0
  Ti  Ti2  2  0.00000000  0.00000000  0.00000000  1.0
  O  O3  8  0.10103400  0.58282900  0.67154800  1.0
  O  O4  4  0.01362200  0.98637800  0.50000000  1.0
