# generated using pymatgen
data_LiTi2O4
_symmetry_space_group_name_H-M   P1
_cell_length_a   8.90499300
_cell_length_b   8.93574910
_cell_length_c   10.45198483
_cell_angle_alpha   89.77457267
_cell_angle_beta   89.93083601
_cell_angle_gamma   60.13050110
_symmetry_Int_Tables_number   1
_chemical_formula_structural   LiTi2O4
_chemical_formula_sum   'Li9 Ti18 O36'
_cell_volume   721.20715948
_cell_formula_units_Z   9
loop_
 _symmetry_equiv_pos_site_id
 _symmetry_equiv_pos_as_xyz
  1  'x, y, z'
loop_
 _atom_site_type_symbol
 _atom_site_label
 _atom_site_symmetry_multiplicity
 _atom_site_fract_x
 _atom_site_fract_y
 _atom_site_fract_z
 _atom_site_occupancy
  Li  Li0  1  0.11276400  0.77192800  0.23074300  1.0
  Li  Li1  1  0.21577600  0.88754300  0.77081500  1.0
  Li  Li2  1  0.21613200  0.39572900  0.72644000  1.0
  Li  Li3  1  0.44378200  0.11002000  0.23112700  1.0
  Li  Li4  1  0.54944900  0.55512100  0.77327300  1.0
  Li  Li5  1  0.60305900  0.95107800  0.75109700  1.0
  Li  Li6  1  0.78179600  0.26484600  0.27642300  1.0
  Li  Li7  1  0.78444800  0.61566800  0.26681100  1.0
  Li  Li8  1  0.88429500  0.22689400  0.77607600  1.0
  Ti  Ti9  1  0.00047100  0.49906000  0.49721500  1.0
  Ti  Ti10  1  0.00615300  0.16431500  0.49727200  1.0
  Ti  Ti11  1  0.00640900  0.32992600  0.00569700  1.0
  Ti  Ti12  1  0.33360000  0.16460600  0.50674800  1.0
  Ti  Ti13  1  0.33457900  0.49894300  0.48839000  1.0
  Ti  Ti14  1  0.33518700  0.66545100  0.00723000  1.0
  Ti  Ti15  1  0.33696800  0.99734000  0.99651100  1.0
  Ti  Ti16  1  0.33824700  0.33509400  0.00250700  1.0
  Ti  Ti17  1  0.34099000  0.83290700  0.48856700  1.0
  Ti  Ti18  1  0.66061000  0.33488700  0.00509200  1.0
  Ti  Ti19  1  0.66074800  0.67337500  0.99433700  1.0
  Ti  Ti20  1  0.66403100  0.16717500  0.51223900  1.0
  Ti  Ti21  1  0.66637300  0.83214600  0.49445100  1.0
  Ti  Ti22  1  0.66733100  0.50078700  0.50291900  1.0
  Ti  Ti23  1  0.67220700  0.00069200  0.00884700  1.0
  Ti  Ti24  1  0.99365100  0.83278100  0.51266000  1.0
  Ti  Ti25  1  0.99854800  0.00370600  0.00674400  1.0
  Ti  Ti26  1  0.99906200  0.66796300  0.98249300  1.0
  O  O27  1  0.10502900  0.10995700  0.89389800  1.0
  O  O28  1  0.11161300  0.28075600  0.60394300  1.0
  O  O29  1  0.11421300  0.78369600  0.89829800  1.0
  O  O30  1  0.11515500  0.94392800  0.60023000  1.0
  O  O31  1  0.11553200  0.44042500  0.89735500  1.0
  O  O32  1  0.11636900  0.60300400  0.59959100  1.0
  O  O33  1  0.21493100  0.56161400  0.09699700  1.0
  O  O34  1  0.21505500  0.72648700  0.40104500  1.0
  O  O35  1  0.22032600  0.88505800  0.10270600  1.0
  O  O36  1  0.22412600  0.05843400  0.40099000  1.0
  O  O37  1  0.22509100  0.38474200  0.40139500  1.0
  O  O38  1  0.22796400  0.21850200  0.09981200  1.0
  O  O39  1  0.43521200  0.28551800  0.60535000  1.0
  O  O40  1  0.43827000  0.77440800  0.88725300  1.0
  O  O41  1  0.44538200  0.61187900  0.59853200  1.0
  O  O42  1  0.44612500  0.44993100  0.89808100  1.0
  O  O43  1  0.44748000  0.94220400  0.60336900  1.0
  O  O44  1  0.45015000  0.10869700  0.89971700  1.0
  O  O45  1  0.55335000  0.05937500  0.40200300  1.0
  O  O46  1  0.55464700  0.21721800  0.11033100  1.0
  O  O47  1  0.55624300  0.89128600  0.10389200  1.0
  O  O48  1  0.55859700  0.55677000  0.09965200  1.0
  O  O49  1  0.56456600  0.71350200  0.39185300  1.0
  O  O50  1  0.56565100  0.38150800  0.40195500  1.0
  O  O51  1  0.76850300  0.78881600  0.89575400  1.0
  O  O52  1  0.76987400  0.94360000  0.60756400  1.0
  O  O53  1  0.77422300  0.44004400  0.89677400  1.0
  O  O54  1  0.77708500  0.61160600  0.59581400  1.0
  O  O55  1  0.78012200  0.11640900  0.90354800  1.0
  O  O56  1  0.78110000  0.27914100  0.60642200  1.0
  O  O57  1  0.88234200  0.39015400  0.39202700  1.0
  O  O58  1  0.88518400  0.05914900  0.40660000  1.0
  O  O59  1  0.88570600  0.55907500  0.09187300  1.0
  O  O60  1  0.88673500  0.22446400  0.10607900  1.0
  O  O61  1  0.89002400  0.72015500  0.39610300  1.0
  O  O62  1  0.89854200  0.87854100  0.10059500  1.0
