# generated using pymatgen
data_LiTi2O4
_symmetry_space_group_name_H-M   P1
_cell_length_a   7.86625600
_cell_length_b   7.88679124
_cell_length_c   10.65016437
_cell_angle_alpha   80.83732877
_cell_angle_beta   87.27113964
_cell_angle_gamma   60.12707897
_symmetry_Int_Tables_number   1
_chemical_formula_structural   LiTi2O4
_chemical_formula_sum   'Li7 Ti14 O28'
_cell_volume   565.24260315
_cell_formula_units_Z   7
loop_
 _symmetry_equiv_pos_site_id
 _symmetry_equiv_pos_as_xyz
  1  'x, y, z'
loop_
 _atom_site_type_symbol
 _atom_site_label
 _atom_site_symmetry_multiplicity
 _atom_site_fract_x
 _atom_site_fract_y
 _atom_site_fract_z
 _atom_site_occupancy
  Li  Li0  1  0.04019300  0.80574300  0.77899900  1.0
  Li  Li1  1  0.25422000  0.54531300  0.26257100  1.0
  Li  Li2  1  0.39313100  0.05312300  0.21879700  1.0
  Li  Li3  1  0.41030100  0.96007100  0.73608400  1.0
  Li  Li4  1  0.68012100  0.61224300  0.22240100  1.0
  Li  Li5  1  0.74806800  0.24999900  0.77884800  1.0
  Li  Li6  1  0.95743700  0.18238800  0.21869600  1.0
  Ti  Ti7  1  0.00948300  0.98975600  0.00846000  1.0
  Ti  Ti8  1  0.06987600  0.64369700  0.50425300  1.0
  Ti  Ti9  1  0.13830000  0.29834500  0.98253100  1.0
  Ti  Ti10  1  0.21303700  0.92148100  0.49551800  1.0
  Ti  Ti11  1  0.29991300  0.56009400  0.99335200  1.0
  Ti  Ti12  1  0.35594700  0.21756300  0.49683700  1.0
  Ti  Ti13  1  0.41444300  0.85727000  0.00501600  1.0
  Ti  Ti14  1  0.49893800  0.50406600  0.50458300  1.0
  Ti  Ti15  1  0.58224000  0.13225100  0.00364200  1.0
  Ti  Ti16  1  0.64832100  0.78011700  0.50311700  1.0
  Ti  Ti17  1  0.71123700  0.43672900  0.99221700  1.0
  Ti  Ti18  1  0.77274300  0.08052200  0.49588600  1.0
  Ti  Ti19  1  0.85321700  0.72021200  0.00465800  1.0
  Ti  Ti20  1  0.94467900  0.34957800  0.50369400  1.0
  O  O21  1  0.02813600  0.86092300  0.59950700  1.0
  O  O22  1  0.06636400  0.72710800  0.10078000  1.0
  O  O23  1  0.08309500  0.55997500  0.89635500  1.0
  O  O24  1  0.11627000  0.43276900  0.39571100  1.0
  O  O25  1  0.17895600  0.13582100  0.60062500  1.0
  O  O26  1  0.19136700  0.03936300  0.10728100  1.0
  O  O27  1  0.22977900  0.83230900  0.89400300  1.0
  O  O28  1  0.25717000  0.70736100  0.39632200  1.0
  O  O29  1  0.31415000  0.43009900  0.59637500  1.0
  O  O30  1  0.33744700  0.30493200  0.09687000  1.0
  O  O31  1  0.37584400  0.11135900  0.90122900  1.0
  O  O32  1  0.40000000  0.99996800  0.39840200  1.0
  O  O33  1  0.45533500  0.72458100  0.59950600  1.0
  O  O34  1  0.48397200  0.59133400  0.10551900  1.0
  O  O35  1  0.52896300  0.39188600  0.89550700  1.0
  O  O36  1  0.53808000  0.29384700  0.39831200  1.0
  O  O37  1  0.59419700  0.00012600  0.60014600  1.0
  O  O38  1  0.61810700  0.87554500  0.11138500  1.0
  O  O39  1  0.65313700  0.69854000  0.90504100  1.0
  O  O40  1  0.68361200  0.57208900  0.40245000  1.0
  O  O41  1  0.74608500  0.28249500  0.59943500  1.0
  O  O42  1  0.77084500  0.16857500  0.10070100  1.0
  O  O43  1  0.81255100  0.97724100  0.89660200  1.0
  O  O44  1  0.82749100  0.85697400  0.40702800  1.0
  O  O45  1  0.88290000  0.57173200  0.59717100  1.0
  O  O46  1  0.90672400  0.44842700  0.10126700  1.0
  O  O47  1  0.94286800  0.25822100  0.89822500  1.0
  O  O48  1  0.96806000  0.14635600  0.39896600  1.0
