# generated using pymatgen
data_LiV2O4
_symmetry_space_group_name_H-M   Imma
_cell_length_a   5.87979400
_cell_length_b   5.93753851
_cell_length_c   5.93753851
_cell_angle_alpha   61.30956193
_cell_angle_beta   60.32119318
_cell_angle_gamma   60.32119318
_symmetry_Int_Tables_number   74
_chemical_formula_structural   LiV2O4
_chemical_formula_sum   'Li2 V4 O8'
_cell_volume   148.69910132
_cell_formula_units_Z   2
loop_
 _symmetry_equiv_pos_site_id
 _symmetry_equiv_pos_as_xyz
  1  'x, y, z'
  2  '-x, -y, -z'
  3  '-x-y-z, z+1/2, y+1/2'
  4  'x+y+z, -z+1/2, -y+1/2'
  5  'x+y+z, -y, -z'
  6  '-x-y-z, y, z'
  7  '-x, -z+1/2, -y+1/2'
  8  'x, z+1/2, y+1/2'
loop_
 _atom_site_type_symbol
 _atom_site_label
 _atom_site_symmetry_multiplicity
 _atom_site_fract_x
 _atom_site_fract_y
 _atom_site_fract_z
 _atom_site_occupancy
  Li  Li0  2  0.00000000  0.00000000  0.50000000  1.0
  V  V1  2  0.00000000  0.00000000  0.00000000  1.0
  V  V2  2  0.37036900  0.37963100  0.87963100  1.0
  O  O3  4  0.23860100  0.75017700  0.77262100  1.0
  O  O4  4  0.24041100  0.75100400  0.25100400  1.0
