# generated using pymatgen
data_Li2Mo15Se19
_symmetry_space_group_name_H-M   R-3c
_cell_length_a   9.72791018
_cell_length_b   9.72791018
_cell_length_c   20.35552055
_cell_angle_alpha   76.17541075
_cell_angle_beta   76.17541075
_cell_angle_gamma   59.99999874
_symmetry_Int_Tables_number   167
_chemical_formula_structural   Li2Mo15Se19
_chemical_formula_sum   'Li4 Mo30 Se38'
_cell_volume   1603.45755740
_cell_formula_units_Z   2
loop_
 _symmetry_equiv_pos_site_id
 _symmetry_equiv_pos_as_xyz
  1  'x, y, z'
  2  '-x, -y, -z'
  3  '-x-y-z, x, z'
  4  'x+y+z, -x, -z'
  5  'y, -x-y-z, z'
  6  '-y, x+y+z, -z'
  7  '-x+1/2, x+y+z+1/2, -z+1/2'
  8  'x+1/2, -x-y-z+1/2, z+1/2'
  9  'x+y+z+1/2, -y+1/2, -z+1/2'
  10  '-x-y-z+1/2, y+1/2, z+1/2'
  11  '-y+1/2, -x+1/2, -z+1/2'
  12  'y+1/2, x+1/2, z+1/2'
loop_
 _atom_site_type_symbol
 _atom_site_label
 _atom_site_symmetry_multiplicity
 _atom_site_fract_x
 _atom_site_fract_y
 _atom_site_fract_z
 _atom_site_occupancy
  Li  Li0  4  0.11394600  0.11394600  0.65816200  1.0
  Mo  Mo1  12  0.00214900  0.81141500  0.05885500  1.0
  Mo  Mo2  12  0.04654300  0.22551300  0.36740500  1.0
  Mo  Mo3  6  0.08972300  0.41027700  0.25000000  1.0
  Se  Se4  12  0.04434000  0.42048600  0.85626500  1.0
  Se  Se5  12  0.05737700  0.68926600  0.95045400  1.0
  Se  Se6  6  0.05894300  0.75000000  0.74999900  1.0
  Se  Se7  4  0.05450500  0.05450500  0.83648500  1.0
  Se  Se8  4  0.17610400  0.17610400  0.47168800  1.0
