# generated using pymatgen
data_Lu(Mo3S4)2
_symmetry_space_group_name_H-M   R-3
_cell_length_a   6.47657473
_cell_length_b   6.47657473
_cell_length_c   6.47657463
_cell_angle_alpha   89.81593682
_cell_angle_beta   89.81593682
_cell_angle_gamma   89.81593799
_symmetry_Int_Tables_number   148
_chemical_formula_structural   Lu(Mo3S4)2
_chemical_formula_sum   'Lu1 Mo6 S8'
_cell_volume   271.66233399
_cell_formula_units_Z   1
loop_
 _symmetry_equiv_pos_site_id
 _symmetry_equiv_pos_as_xyz
  1  'x, y, z'
  2  '-x, -y, -z'
  3  'z, x, y'
  4  '-z, -x, -y'
  5  'y, z, x'
  6  '-y, -z, -x'
loop_
 _atom_site_type_symbol
 _atom_site_label
 _atom_site_symmetry_multiplicity
 _atom_site_fract_x
 _atom_site_fract_y
 _atom_site_fract_z
 _atom_site_occupancy
  Lu  Lu0  1  0.00000000  0.00000000  0.00000000  1.0
  Mo  Mo1  6  0.22309100  0.55929600  0.41873000  1.0
  S  S2  6  0.12759400  0.36722200  0.75167600  1.0
  S  S3  2  0.23490100  0.23490100  0.23490100  1.0
