# generated using pymatgen
data_Lu2Si5Ni3
_symmetry_space_group_name_H-M   Ibam
_cell_length_a   5.57838200
_cell_length_b   7.80159672
_cell_length_c   7.80159672
_cell_angle_alpha   76.31819674
_cell_angle_beta   69.05231339
_cell_angle_gamma   69.05231337
_symmetry_Int_Tables_number   72
_chemical_formula_structural   Lu2Si5Ni3
_chemical_formula_sum   'Lu4 Si10 Ni6'
_cell_volume   293.82085949
_cell_formula_units_Z   2
loop_
 _symmetry_equiv_pos_site_id
 _symmetry_equiv_pos_as_xyz
  1  'x, y, z'
  2  '-x, -y, -z'
  3  'x+y+z, -y, -z'
  4  '-x-y-z, y, z'
  5  '-x+1/2, -z, -y'
  6  'x+1/2, z, y'
  7  '-x-y-z+1/2, z, y'
  8  'x+y+z+1/2, -z, -y'
loop_
 _atom_site_type_symbol
 _atom_site_label
 _atom_site_symmetry_multiplicity
 _atom_site_fract_x
 _atom_site_fract_y
 _atom_site_fract_z
 _atom_site_occupancy
  Lu  Lu0  4  0.13018400  0.13351400  0.60611800  1.0
  Si  Si1  4  0.01377900  0.23622100  0.23622100  1.0
  Si  Si2  4  0.10884100  0.73963400  0.04268400  1.0
  Si  Si3  2  0.25000000  0.50000000  0.50000000  1.0
  Ni  Ni4  4  0.13388100  0.48357200  0.24866600  1.0
  Ni  Ni5  2  0.25000000  0.00000000  0.00000000  1.0
