# generated using pymatgen
data_YMg
_symmetry_space_group_name_H-M   Amm2
_cell_length_a   3.47076800
_cell_length_b   5.49304000
_cell_length_c   8.94038248
_cell_angle_alpha   90.00000000
_cell_angle_beta   101.19251718
_cell_angle_gamma   90.00000000
_symmetry_Int_Tables_number   38
_chemical_formula_structural   YMg
_chemical_formula_sum   'Y3 Mg3'
_cell_volume   167.20714277
_cell_formula_units_Z   3
loop_
 _symmetry_equiv_pos_site_id
 _symmetry_equiv_pos_as_xyz
  1  'x, y, z'
  2  '-x+z, -y, z'
  3  'x, -y, z'
  4  '-x+z, y, z'
loop_
 _atom_site_type_symbol
 _atom_site_label
 _atom_site_symmetry_multiplicity
 _atom_site_fract_x
 _atom_site_fract_y
 _atom_site_fract_z
 _atom_site_occupancy
  Y  Y0  1  0.66582200  0.00000000  0.33164400  1.0
  Y  Y1  1  0.78826900  0.50000000  0.57653800  1.0
  Y  Y2  1  0.98988700  0.00000000  0.97977400  1.0
  Mg  Mg3  1  0.10862700  0.50000000  0.21725400  1.0
  Mg  Mg4  1  0.33179800  0.00000000  0.66359600  1.0
  Mg  Mg5  1  0.44893100  0.50000000  0.89786200  1.0
