# generated using pymatgen
data_YMg
_symmetry_space_group_name_H-M   Cm
_cell_length_a   3.49304800
_cell_length_b   6.38462648
_cell_length_c   8.31228158
_cell_angle_alpha   108.32661837
_cell_angle_beta   90.00000000
_cell_angle_gamma   105.87571020
_symmetry_Int_Tables_number   8
_chemical_formula_structural   YMg
_chemical_formula_sum   'Y3 Mg3'
_cell_volume   168.51147361
_cell_formula_units_Z   3
loop_
 _symmetry_equiv_pos_site_id
 _symmetry_equiv_pos_as_xyz
  1  'x, y, z'
  2  '-x+y, y, z'
loop_
 _atom_site_type_symbol
 _atom_site_label
 _atom_site_symmetry_multiplicity
 _atom_site_fract_x
 _atom_site_fract_y
 _atom_site_fract_z
 _atom_site_occupancy
  Y  Y0  1  0.03144000  0.06288000  0.58595100  1.0
  Y  Y1  1  0.69282100  0.38564200  0.35516800  1.0
  Y  Y2  1  0.71011900  0.42023800  0.94000600  1.0
  Mg  Mg3  1  0.00129400  0.00258800  0.00445600  1.0
  Mg  Mg4  1  0.33258700  0.66517400  0.70188100  1.0
  Mg  Mg5  1  0.39840600  0.79681200  0.24587200  1.0
