# generated using pymatgen
data_YMg
_symmetry_space_group_name_H-M   Cm
_cell_length_a   3.49810600
_cell_length_b   6.68813354
_cell_length_c   7.84332429
_cell_angle_alpha   104.51940261
_cell_angle_beta   90.00000000
_cell_angle_gamma   105.16002699
_symmetry_Int_Tables_number   8
_chemical_formula_structural   YMg
_chemical_formula_sum   'Y3 Mg3'
_cell_volume   171.03568827
_cell_formula_units_Z   3
loop_
 _symmetry_equiv_pos_site_id
 _symmetry_equiv_pos_as_xyz
  1  'x, y, z'
  2  '-x+y, y, z'
loop_
 _atom_site_type_symbol
 _atom_site_label
 _atom_site_symmetry_multiplicity
 _atom_site_fract_x
 _atom_site_fract_y
 _atom_site_fract_z
 _atom_site_occupancy
  Y  Y0  1  0.00206700  0.00413400  0.00899200  1.0
  Y  Y1  1  0.33218600  0.66437200  0.65819800  1.0
  Y  Y2  1  0.72080700  0.44161400  0.94492800  1.0
  Mg  Mg3  1  0.05760300  0.11520600  0.60488600  1.0
  Mg  Mg4  1  0.39021400  0.78042800  0.28075600  1.0
  Mg  Mg5  1  0.66378900  0.32757800  0.33557300  1.0
