# generated using pymatgen
data_MgZn
_symmetry_space_group_name_H-M   C2
_cell_length_a   4.88854400
_cell_length_b   5.31517109
_cell_length_c   5.63657084
_cell_angle_alpha   62.61940913
_cell_angle_beta   64.30088163
_cell_angle_gamma   62.62147179
_symmetry_Int_Tables_number   5
_chemical_formula_structural   MgZn
_chemical_formula_sum   'Mg3 Zn3'
_cell_volume   110.80482247
_cell_formula_units_Z   3
loop_
 _symmetry_equiv_pos_site_id
 _symmetry_equiv_pos_as_xyz
  1  'x, y, z'
  2  'x+y+z, -y, -z'
loop_
 _atom_site_type_symbol
 _atom_site_label
 _atom_site_symmetry_multiplicity
 _atom_site_fract_x
 _atom_site_fract_y
 _atom_site_fract_z
 _atom_site_occupancy
  Mg  Mg0  2  0.30080300  0.67783000  0.01578500  1.0
  Mg  Mg1  1  0.53620100  0.50000000  0.50000000  1.0
  Zn  Zn2  2  0.19371300  0.13109600  0.49385800  1.0
  Zn  Zn3  1  0.65619800  0.00000000  0.00000000  1.0
