# generated using pymatgen
data_MgZn
_symmetry_space_group_name_H-M   Amm2
_cell_length_a   4.82237200
_cell_length_b   5.11189579
_cell_length_c   5.11189579
_cell_angle_alpha   119.80188174
_cell_angle_beta   90.00000000
_cell_angle_gamma   90.00000000
_symmetry_Int_Tables_number   38
_chemical_formula_structural   MgZn
_chemical_formula_sum   'Mg3 Zn3'
_cell_volume   109.35002333
_cell_formula_units_Z   3
loop_
 _symmetry_equiv_pos_site_id
 _symmetry_equiv_pos_as_xyz
  1  'x, y, z'
  2  '-x, z, y'
  3  '-x, y, z'
  4  'x, z, y'
loop_
 _atom_site_type_symbol
 _atom_site_label
 _atom_site_symmetry_multiplicity
 _atom_site_fract_x
 _atom_site_fract_y
 _atom_site_fract_z
 _atom_site_occupancy
  Mg  Mg0  2  0.00000000  0.32778500  0.98169500  1.0
  Mg  Mg1  1  0.50000000  0.35547000  0.35547000  1.0
  Zn  Zn2  2  0.50000000  0.67317900  0.99010200  1.0
  Zn  Zn3  1  0.00000000  0.67176900  0.67176900  1.0
