# generated using pymatgen
data_MgZn
_symmetry_space_group_name_H-M   Amm2
_cell_length_a   3.04590000
_cell_length_b   4.77663200
_cell_length_c   7.78260972
_cell_angle_alpha   90.00000000
_cell_angle_beta   101.28481736
_cell_angle_gamma   90.00000000
_symmetry_Int_Tables_number   38
_chemical_formula_structural   MgZn
_chemical_formula_sum   'Mg3 Zn3'
_cell_volume   111.04117217
_cell_formula_units_Z   3
loop_
 _symmetry_equiv_pos_site_id
 _symmetry_equiv_pos_as_xyz
  1  'x, y, z'
  2  '-x+z, -y, z'
  3  'x, -y, z'
  4  '-x+z, y, z'
loop_
 _atom_site_type_symbol
 _atom_site_label
 _atom_site_symmetry_multiplicity
 _atom_site_fract_x
 _atom_site_fract_y
 _atom_site_fract_z
 _atom_site_occupancy
  Mg  Mg0  1  0.33362200  0.00000000  0.66724400  1.0
  Mg  Mg1  1  0.45549200  0.50000000  0.91098400  1.0
  Mg  Mg2  1  0.76664800  0.50000000  0.53329600  1.0
  Zn  Zn3  1  0.00614500  0.00000000  0.01229000  1.0
  Zn  Zn4  1  0.11024100  0.50000000  0.22048200  1.0
  Zn  Zn5  1  0.66118600  0.00000000  0.32237200  1.0
