# generated using pymatgen
data_MgZn
_symmetry_space_group_name_H-M   Amm2
_cell_length_a   3.04077000
_cell_length_b   4.71990200
_cell_length_c   7.70523028
_cell_angle_alpha   90.00000000
_cell_angle_beta   101.38019978
_cell_angle_gamma   90.00000000
_symmetry_Int_Tables_number   38
_chemical_formula_structural   MgZn
_chemical_formula_sum   'Mg3 Zn3'
_cell_volume   108.41232122
_cell_formula_units_Z   3
loop_
 _symmetry_equiv_pos_site_id
 _symmetry_equiv_pos_as_xyz
  1  'x, y, z'
  2  '-x+z, -y, z'
  3  'x, -y, z'
  4  '-x+z, y, z'
loop_
 _atom_site_type_symbol
 _atom_site_label
 _atom_site_symmetry_multiplicity
 _atom_site_fract_x
 _atom_site_fract_y
 _atom_site_fract_z
 _atom_site_occupancy
  Mg  Mg0  1  0.12054700  0.50000000  0.24109400  1.0
  Mg  Mg1  1  0.32500000  0.00000000  0.65000000  1.0
  Mg  Mg2  1  0.44440100  0.50000000  0.88880200  1.0
  Zn  Zn3  1  0.00355900  0.00000000  0.00711800  1.0
  Zn  Zn4  1  0.66285300  0.00000000  0.32570600  1.0
  Zn  Zn5  1  0.77697300  0.50000000  0.55394600  1.0
