# generated using pymatgen
data_MgZn
_symmetry_space_group_name_H-M   Amm2
_cell_length_a   3.04994600
_cell_length_b   4.80030400
_cell_length_c   7.73960371
_cell_angle_alpha   90.00000000
_cell_angle_beta   101.36362859
_cell_angle_gamma   90.00000000
_symmetry_Int_Tables_number   38
_chemical_formula_structural   MgZn
_chemical_formula_sum   'Mg3 Zn3'
_cell_volume   111.09163182
_cell_formula_units_Z   3
loop_
 _symmetry_equiv_pos_site_id
 _symmetry_equiv_pos_as_xyz
  1  'x, y, z'
  2  '-x+z, -y, z'
  3  'x, -y, z'
  4  '-x+z, y, z'
loop_
 _atom_site_type_symbol
 _atom_site_label
 _atom_site_symmetry_multiplicity
 _atom_site_fract_x
 _atom_site_fract_y
 _atom_site_fract_z
 _atom_site_occupancy
  Mg  Mg0  1  0.43927900  0.50000000  0.87855800  1.0
  Mg  Mg1  1  0.67304900  0.00000000  0.34609800  1.0
  Mg  Mg2  1  0.99828600  0.00000000  0.99657200  1.0
  Zn  Zn3  1  0.11313000  0.50000000  0.22626000  1.0
  Zn  Zn4  1  0.33324100  0.00000000  0.66648200  1.0
  Zn  Zn5  1  0.77634800  0.50000000  0.55269600  1.0
