# generated using pymatgen
data_Mg2Pb
_symmetry_space_group_name_H-M   Pnma
_cell_length_a   4.51913700
_cell_length_b   7.78107800
_cell_length_c   8.75552200
_cell_angle_alpha   90.00000000
_cell_angle_beta   90.00000000
_cell_angle_gamma   90.00000000
_symmetry_Int_Tables_number   62
_chemical_formula_structural   Mg2Pb
_chemical_formula_sum   'Mg8 Pb4'
_cell_volume   307.87705230
_cell_formula_units_Z   4
loop_
 _symmetry_equiv_pos_site_id
 _symmetry_equiv_pos_as_xyz
  1  'x, y, z'
  2  '-x, -y, -z'
  3  '-x, -y+1/2, z+1/2'
  4  'x, y+1/2, -z+1/2'
  5  '-x+1/2, y+1/2, -z+1/2'
  6  'x+1/2, -y+1/2, z+1/2'
  7  'x+1/2, -y, -z'
  8  '-x+1/2, y, z'
loop_
 _atom_site_type_symbol
 _atom_site_label
 _atom_site_symmetry_multiplicity
 _atom_site_fract_x
 _atom_site_fract_y
 _atom_site_fract_z
 _atom_site_occupancy
  Mg  Mg0  4  0.25000000  0.03303000  0.32158000  1.0
  Mg  Mg1  4  0.25000000  0.13155600  0.92952000  1.0
  Pb  Pb2  4  0.25000000  0.24471300  0.61523100  1.0
