# generated using pymatgen
data_Mg2Zn3
_symmetry_space_group_name_H-M   Cmcm
_cell_length_a   4.67158100
_cell_length_b   4.83497800
_cell_length_c   5.15683372
_cell_angle_alpha   62.04400570
_cell_angle_beta   90.00000000
_cell_angle_gamma   90.00000000
_symmetry_Int_Tables_number   63
_chemical_formula_structural   Mg2Zn3
_chemical_formula_sum   'Mg2 Zn3'
_cell_volume   102.88537195
_cell_formula_units_Z   1
loop_
 _symmetry_equiv_pos_site_id
 _symmetry_equiv_pos_as_xyz
  1  'x, y, z'
  2  '-x, -y, -z'
  3  'x+1/2, -y, -z'
  4  '-x+1/2, y, z'
  5  '-x, -y-z, z'
  6  'x, y+z, -z'
  7  '-x+1/2, y+z, -z'
  8  'x+1/2, -y-z, z'
loop_
 _atom_site_type_symbol
 _atom_site_label
 _atom_site_symmetry_multiplicity
 _atom_site_fract_x
 _atom_site_fract_y
 _atom_site_fract_z
 _atom_site_occupancy
  Mg  Mg0  2  0.25000000  0.29972600  0.00000000  1.0
  Zn  Zn1  4  0.25000000  0.01430500  0.63259100  0.75
