# generated using pymatgen
data_Mg0.90909091Zn5
_symmetry_space_group_name_H-M   Amm2
_cell_length_a   2.88821800
_cell_length_b   4.56867300
_cell_length_c   7.47090615
_cell_angle_alpha   90.00000000
_cell_angle_beta   101.14529728
_cell_angle_gamma   90.00000000
_symmetry_Int_Tables_number   38
_chemical_formula_structural   Mg0.90909091Zn5
_chemical_formula_sum   'Mg0.90909091 Zn5'
_cell_volume   96.72180107
_cell_formula_units_Z   1
loop_
 _symmetry_equiv_pos_site_id
 _symmetry_equiv_pos_as_xyz
  1  'x, y, z'
  2  '-x+z, -y, z'
  3  'x, -y, z'
  4  '-x+z, y, z'
loop_
 _atom_site_type_symbol
 _atom_site_label
 _atom_site_symmetry_multiplicity
 _atom_site_fract_x
 _atom_site_fract_y
 _atom_site_fract_z
 _atom_site_occupancy
  Mg  Mg0  1  0.77765600  0.50000000  0.55531200  0.9090909091
  Zn  Zn1  1  0.00054700  0.00000000  0.00109400  1.0
  Zn  Zn2  1  0.10615500  0.50000000  0.21231000  1.0
  Zn  Zn3  1  0.33769500  0.00000000  0.67539000  1.0
  Zn  Zn4  1  0.44768500  0.50000000  0.89537000  1.0
  Zn  Zn5  1  0.66359400  0.00000000  0.32718800  1.0
