# generated using pymatgen
data_Mg0.90909091Zn5
_symmetry_space_group_name_H-M   R32
_cell_length_a   4.71849554
_cell_length_b   4.71849554
_cell_length_c   5.70376667
_cell_angle_alpha   65.56694676
_cell_angle_beta   65.56694676
_cell_angle_gamma   60.00000653
_symmetry_Int_Tables_number   155
_chemical_formula_structural   Mg0.90909091Zn5
_chemical_formula_sum   'Mg0.90909091 Zn5'
_cell_volume   96.62167644
_cell_formula_units_Z   1
loop_
 _symmetry_equiv_pos_site_id
 _symmetry_equiv_pos_as_xyz
  1  'x, y, z'
  2  '-x-y-z, x, z'
  3  'y, -x-y-z, z'
  4  '-x, x+y+z, -z'
  5  'x+y+z, -y, -z'
  6  '-y, -x, -z'
loop_
 _atom_site_type_symbol
 _atom_site_label
 _atom_site_symmetry_multiplicity
 _atom_site_fract_x
 _atom_site_fract_y
 _atom_site_fract_z
 _atom_site_occupancy
  Mg  Mg0  1  0.50000000  0.50000000  0.50000000  0.9090909091
  Zn  Zn1  3  0.00000000  0.32998000  0.00000000  1.0
  Zn  Zn2  2  0.16487300  0.16487300  0.50538100  1.0
