# generated using pymatgen
data_Mg4Zn1.71428571
_symmetry_space_group_name_H-M   C2/c
_cell_length_a   5.10600000
_cell_length_b   5.26178440
_cell_length_c   5.77894450
_cell_angle_alpha   65.75258853
_cell_angle_beta   63.78273687
_cell_angle_gamma   60.97464486
_symmetry_Int_Tables_number   15
_chemical_formula_structural   Mg4Zn1.71428571
_chemical_formula_sum   'Mg4 Zn1.71428571'
_cell_volume   117.91845977
_cell_formula_units_Z   1
loop_
 _symmetry_equiv_pos_site_id
 _symmetry_equiv_pos_as_xyz
  1  'x, y, z'
  2  '-x, -y, -z'
  3  'x+y+z, -y+1/2, -z+1/2'
  4  '-x-y-z, y+1/2, z+1/2'
loop_
 _atom_site_type_symbol
 _atom_site_label
 _atom_site_symmetry_multiplicity
 _atom_site_fract_x
 _atom_site_fract_y
 _atom_site_fract_z
 _atom_site_occupancy
  Mg  Mg0  4  0.24658500  0.08608600  0.25120400  1.0
  Zn  Zn1  2  0.08237300  0.25000000  0.75000000  0.8571428571499999
