# generated using pymatgen
data_Mg4Zn1.71428571
_symmetry_space_group_name_H-M   C2/m
_cell_length_a   3.10999400
_cell_length_b   5.79371454
_cell_length_c   7.17988977
_cell_angle_alpha   105.80992756
_cell_angle_beta   90.00000000
_cell_angle_gamma   105.56871029
_symmetry_Int_Tables_number   12
_chemical_formula_structural   Mg4Zn1.71428571
_chemical_formula_sum   'Mg4 Zn1.71428571'
_cell_volume   119.53541159
_cell_formula_units_Z   1
loop_
 _symmetry_equiv_pos_site_id
 _symmetry_equiv_pos_as_xyz
  1  'x, y, z'
  2  '-x, -y, -z'
  3  'x-y, -y, -z'
  4  '-x+y, y, z'
loop_
 _atom_site_type_symbol
 _atom_site_label
 _atom_site_symmetry_multiplicity
 _atom_site_fract_x
 _atom_site_fract_y
 _atom_site_fract_z
 _atom_site_occupancy
  Mg  Mg0  2  0.14270600  0.28541200  0.03633300  1.0
  Mg  Mg1  2  0.46981900  0.93963800  0.68393500  1.0
  Zn  Zn2  2  0.19654700  0.39309400  0.63832000  0.8571428571499999
