# generated using pymatgen
data_Mg4Zn1.71428571
_symmetry_space_group_name_H-M   R32
_cell_length_a   5.15162759
_cell_length_b   5.15162759
_cell_length_c   6.04665844
_cell_angle_alpha   64.78667604
_cell_angle_beta   64.78667604
_cell_angle_gamma   60.00000528
_symmetry_Int_Tables_number   155
_chemical_formula_structural   Mg4Zn1.71428571
_chemical_formula_sum   'Mg4 Zn1.71428571'
_cell_volume   120.99909787
_cell_formula_units_Z   1
loop_
 _symmetry_equiv_pos_site_id
 _symmetry_equiv_pos_as_xyz
  1  'x, y, z'
  2  '-x-y-z, x, z'
  3  'y, -x-y-z, z'
  4  '-x, x+y+z, -z'
  5  'x+y+z, -y, -z'
  6  '-y, -x, -z'
loop_
 _atom_site_type_symbol
 _atom_site_label
 _atom_site_symmetry_multiplicity
 _atom_site_fract_x
 _atom_site_fract_y
 _atom_site_fract_z
 _atom_site_occupancy
  Mg  Mg0  3  0.00000000  0.32975000  0.00000000  1.0
  Mg  Mg1  1  0.50000000  0.50000000  0.50000000  1.0
  Zn  Zn2  2  0.16505900  0.16505900  0.50482300  0.8571428571499999
