# generated using pymatgen
data_Mg4Zn1.71428571
_symmetry_space_group_name_H-M   Cmcm
_cell_length_a   3.10575000
_cell_length_b   4.95529300
_cell_length_c   7.92025113
_cell_angle_alpha   90.00000000
_cell_angle_beta   101.30687797
_cell_angle_gamma   90.00000000
_symmetry_Int_Tables_number   63
_chemical_formula_structural   Mg4Zn1.71428571
_chemical_formula_sum   'Mg4 Zn1.71428571'
_cell_volume   119.52609888
_cell_formula_units_Z   1
loop_
 _symmetry_equiv_pos_site_id
 _symmetry_equiv_pos_as_xyz
  1  'x, y, z'
  2  '-x, -y, -z'
  3  '-x, y+1/2, -z'
  4  'x, -y+1/2, z'
  5  'x-z, -y, -z'
  6  '-x+z, y, z'
  7  '-x+z, -y+1/2, z'
  8  'x-z, y+1/2, -z'
loop_
 _atom_site_type_symbol
 _atom_site_label
 _atom_site_symmetry_multiplicity
 _atom_site_fract_x
 _atom_site_fract_y
 _atom_site_fract_z
 _atom_site_occupancy
  Mg  Mg0  2  0.06040300  0.75000000  0.12080600  1.0
  Mg  Mg1  2  0.37824700  0.75000000  0.75649400  1.0
  Zn  Zn2  2  0.27778500  0.25000000  0.55557000  0.8571428571499999
