# generated using pymatgen
data_ZrMnNi
_symmetry_space_group_name_H-M   Imma
_cell_length_a   5.00600782
_cell_length_b   5.00600782
_cell_length_c   5.00600782
_cell_angle_alpha   90.14839901
_cell_angle_beta   119.98846918
_cell_angle_gamma   119.84030355
_symmetry_Int_Tables_number   74
_chemical_formula_structural   ZrMnNi
_chemical_formula_sum   'Zr2 Mn2 Ni2'
_cell_volume   88.82162737
_cell_formula_units_Z   2
loop_
 _symmetry_equiv_pos_site_id
 _symmetry_equiv_pos_as_xyz
  1  'x, y, z'
  2  '-x+1/2, -y+1/4, -z+3/4'
  3  '-x, -x+z, -x+y'
  4  'x+1/2, x-z+1/4, x-y+3/4'
  5  '-y+z+1/2, -y+1/4, x-y+3/4'
  6  'y-z, y, -x+y'
  7  'y-z+1/2, x-z+1/4, -z+3/4'
  8  '-y+z, -x+z, z'
loop_
 _atom_site_type_symbol
 _atom_site_label
 _atom_site_symmetry_multiplicity
 _atom_site_fract_x
 _atom_site_fract_y
 _atom_site_fract_z
 _atom_site_occupancy
  Zr  Zr0  2  0.00000000  0.00128300  0.00128300  1.0
  Mn  Mn1  2  0.25000000  0.62500000  0.37500000  1.0
  Ni  Ni2  2  0.25000000  0.62500000  0.87500000  1.0
