# generated using pymatgen
data_ZrMnNi
_symmetry_space_group_name_H-M   Amm2
_cell_length_a   4.86629400
_cell_length_b   5.00388580
_cell_length_c   8.05499900
_cell_angle_alpha   90.00000000
_cell_angle_beta   90.00000000
_cell_angle_gamma   119.09450016
_symmetry_Int_Tables_number   38
_chemical_formula_structural   ZrMnNi
_chemical_formula_sum   'Zr4 Mn4 Ni4'
_cell_volume   171.39283366
_cell_formula_units_Z   4
loop_
 _symmetry_equiv_pos_site_id
 _symmetry_equiv_pos_as_xyz
  1  'x, y, z'
  2  '-x+y, y, -z'
  3  'x, y, -z'
  4  '-x+y, y, z'
loop_
 _atom_site_type_symbol
 _atom_site_label
 _atom_site_symmetry_multiplicity
 _atom_site_fract_x
 _atom_site_fract_y
 _atom_site_fract_z
 _atom_site_occupancy
  Zr  Zr0  2  0.33585800  0.67171600  0.31053200  1.0
  Zr  Zr1  2  0.66488800  0.32977600  0.81194700  1.0
  Mn  Mn2  2  0.17223300  0.83881700  0.00000000  1.0
  Mn  Mn3  2  0.99551900  0.99103800  0.75555300  1.0
  Ni  Ni4  2  0.33188400  0.16425800  0.50000000  1.0
  Ni  Ni5  1  0.17147700  0.34295400  0.00000000  1.0
  Ni  Ni6  1  0.83434800  0.66869600  0.50000000  1.0
