# generated using pymatgen
data_U6Mn
_symmetry_space_group_name_H-M   I4/mcm
_cell_length_a   5.30088600
_cell_length_b   7.63661585
_cell_length_c   7.63661585
_cell_angle_alpha   83.08147382
_cell_angle_beta   69.69177052
_cell_angle_gamma   69.69177053
_symmetry_Int_Tables_number   140
_chemical_formula_structural   U6Mn
_chemical_formula_sum   'U12 Mn2'
_cell_volume   271.89862944
_cell_formula_units_Z   2
loop_
 _symmetry_equiv_pos_site_id
 _symmetry_equiv_pos_as_xyz
  1  'x, y, z'
  2  '-x, -y, -z'
  3  'x+y, z, -y'
  4  '-x-y, -z, y'
  5  'x+y+z, -y, -z'
  6  '-x-y-z, y, z'
  7  'x+z, -z, y'
  8  '-x-z, z, -y'
  9  '-x+1/2, -z, -y'
  10  'x+1/2, z, y'
  11  '-x-y+1/2, y, -z'
  12  'x+y+1/2, -y, z'
  13  '-x-y-z+1/2, z, y'
  14  'x+y+z+1/2, -z, -y'
  15  '-x-z+1/2, -y, z'
  16  'x+z+1/2, y, -z'
loop_
 _atom_site_type_symbol
 _atom_site_label
 _atom_site_symmetry_multiplicity
 _atom_site_fract_x
 _atom_site_fract_y
 _atom_site_fract_z
 _atom_site_occupancy
  U  U0  8  0.09785300  0.68341900  0.12087500  1.0
  U  U1  4  0.09312400  0.31375300  0.50000000  1.0
  Mn  Mn2  2  0.25000000  0.00000000  0.00000000  1.0
