# generated using pymatgen
data_Mn2O3
_symmetry_space_group_name_H-M   R-3
_cell_length_a   10.51999036
_cell_length_b   10.51999036
_cell_length_c   10.64882129
_cell_angle_alpha   60.39940383
_cell_angle_beta   60.39940383
_cell_angle_gamma   59.99999775
_symmetry_Int_Tables_number   148
_chemical_formula_structural   Mn2O3
_chemical_formula_sum   'Mn32 O48'
_cell_volume   838.32580640
_cell_formula_units_Z   16
loop_
 _symmetry_equiv_pos_site_id
 _symmetry_equiv_pos_as_xyz
  1  'x, y, z'
  2  '-x, -y, -z'
  3  '-x-y-z, x, z'
  4  'x+y+z, -x, -z'
  5  'y, -x-y-z, z'
  6  '-y, x+y+z, -z'
loop_
 _atom_site_type_symbol
 _atom_site_label
 _atom_site_symmetry_multiplicity
 _atom_site_fract_x
 _atom_site_fract_y
 _atom_site_fract_z
 _atom_site_occupancy
  Mn  Mn0  6  0.11454900  0.63110100  0.62070100  1.0
  Mn  Mn1  6  0.13289200  0.13960500  0.11792200  1.0
  Mn  Mn2  6  0.24827000  0.24962600  0.75423200  1.0
  Mn  Mn3  3  0.00000000  0.00000000  0.50000000  1.0
  Mn  Mn4  3  0.00000000  0.50000000  0.00000000  1.0
  Mn  Mn5  2  0.11586800  0.11586800  0.65239700  1.0
  Mn  Mn6  2  0.23697300  0.23697300  0.28908100  1.0
  Mn  Mn7  2  0.38810100  0.38810100  0.83569800  1.0
  Mn  Mn8  1  0.00000000  0.00000000  0.00000000  1.0
  Mn  Mn9  1  0.50000000  0.50000000  0.50000000  1.0
  O  O10  6  0.00916800  0.30134100  0.51750900  1.0
  O  O11  6  0.01501000  0.18188300  0.31863200  1.0
  O  O12  6  0.05442600  0.45488800  0.17542300  1.0
  O  O13  6  0.06083700  0.72783400  0.93056200  1.0
  O  O14  6  0.06418100  0.21625100  0.78988700  1.0
  O  O15  6  0.19827000  0.33997500  0.94075800  1.0
  O  O16  6  0.20745900  0.43709900  0.58268900  1.0
  O  O17  6  0.28264600  0.57812200  0.69494700  1.0
