# generated using pymatgen
data_Mn2O3
_symmetry_space_group_name_H-M   Pbca
_cell_length_a   9.58026900
_cell_length_b   9.60874200
_cell_length_c   9.65843400
_cell_angle_alpha   90.00000000
_cell_angle_beta   90.00000000
_cell_angle_gamma   90.00000000
_symmetry_Int_Tables_number   61
_chemical_formula_structural   Mn2O3
_chemical_formula_sum   'Mn32 O48'
_cell_volume   889.10070077
_cell_formula_units_Z   16
loop_
 _symmetry_equiv_pos_site_id
 _symmetry_equiv_pos_as_xyz
  1  'x, y, z'
  2  '-x, -y, -z'
  3  '-x+1/2, -y, z+1/2'
  4  'x+1/2, y, -z+1/2'
  5  'x+1/2, -y+1/2, -z'
  6  '-x+1/2, y+1/2, z'
  7  '-x, y+1/2, -z+1/2'
  8  'x, -y+1/2, z+1/2'
loop_
 _atom_site_type_symbol
 _atom_site_label
 _atom_site_symmetry_multiplicity
 _atom_site_fract_x
 _atom_site_fract_y
 _atom_site_fract_z
 _atom_site_occupancy
  Mn  Mn0  8  0.00913600  0.74116100  0.71405900  1.0
  Mn  Mn1  8  0.21575100  0.51179600  0.24663900  1.0
  Mn  Mn2  8  0.24358600  0.21205700  0.49987600  1.0
  Mn  Mn3  4  0.00000000  0.00000000  0.00000000  1.0
  Mn  Mn4  4  0.00000000  0.00000000  0.50000000  1.0
  O  O5  8  0.08037000  0.12118800  0.64619200  1.0
  O  O6  8  0.09336200  0.63976700  0.35272500  1.0
  O  O7  8  0.12272200  0.14210000  0.91665400  1.0
  O  O8  8  0.13849800  0.65363400  0.08819600  1.0
  O  O9  8  0.13878800  0.08585000  0.37229600  1.0
  O  O10  8  0.14865300  0.57675000  0.62533600  1.0
