# generated using pymatgen
data_Mn2O3
_symmetry_space_group_name_H-M   R-3c
_cell_length_a   5.16060758
_cell_length_b   5.16060758
_cell_length_c   5.53831054
_cell_angle_alpha   62.23146420
_cell_angle_beta   62.23146420
_cell_angle_gamma   60.00000545
_symmetry_Int_Tables_number   167
_chemical_formula_structural   Mn2O3
_chemical_formula_sum   'Mn4 O6'
_cell_volume   107.67545235
_cell_formula_units_Z   2
loop_
 _symmetry_equiv_pos_site_id
 _symmetry_equiv_pos_as_xyz
  1  'x, y, z'
  2  '-x, -y, -z'
  3  '-x-y-z, x, z'
  4  'x+y+z, -x, -z'
  5  'y, -x-y-z, z'
  6  '-y, x+y+z, -z'
  7  '-x+1/2, x+y+z+1/2, -z+1/2'
  8  'x+1/2, -x-y-z+1/2, z+1/2'
  9  'x+y+z+1/2, -y+1/2, -z+1/2'
  10  '-x-y-z+1/2, y+1/2, z+1/2'
  11  '-y+1/2, -x+1/2, -z+1/2'
  12  'y+1/2, x+1/2, z+1/2'
loop_
 _atom_site_type_symbol
 _atom_site_label
 _atom_site_symmetry_multiplicity
 _atom_site_fract_x
 _atom_site_fract_y
 _atom_site_fract_z
 _atom_site_occupancy
  Mn  Mn0  4  0.14950600  0.14950600  0.55148200  1.0
  O  O1  6  0.05345100  0.44654900  0.75000000  1.0
