# generated using pymatgen
data_Mn2O3
_symmetry_space_group_name_H-M   Cmcm
_cell_length_a   3.09733200
_cell_length_b   5.34093379
_cell_length_c   15.11435900
_cell_angle_alpha   90.00000000
_cell_angle_beta   90.00000000
_cell_angle_gamma   106.85566038
_symmetry_Int_Tables_number   63
_chemical_formula_structural   Mn2O3
_chemical_formula_sum   'Mn8 O12'
_cell_volume   239.28969108
_cell_formula_units_Z   4
loop_
 _symmetry_equiv_pos_site_id
 _symmetry_equiv_pos_as_xyz
  1  'x, y, z'
  2  '-x, -y, -z'
  3  '-x, -y, z+1/2'
  4  'x, y, -z+1/2'
  5  'x-y, -y, -z'
  6  '-x+y, y, z'
  7  '-x+y, y, -z+1/2'
  8  'x-y, -y, z+1/2'
loop_
 _atom_site_type_symbol
 _atom_site_label
 _atom_site_symmetry_multiplicity
 _atom_site_fract_x
 _atom_site_fract_y
 _atom_site_fract_z
 _atom_site_occupancy
  Mn  Mn0  4  0.09194900  0.18389800  0.63948700  1.0
  Mn  Mn1  4  0.36309000  0.72618000  0.54731200  1.0
  O  O2  4  0.27928100  0.55856200  0.07528100  1.0
  O  O3  4  0.47450900  0.94901800  0.64943900  1.0
  O  O4  2  0.00000000  0.00000000  0.00000000  1.0
  O  O5  2  0.16742400  0.33484800  0.75000000  1.0
