# generated using pymatgen
data_Mn1O1.5
_symmetry_space_group_name_H-M   R-3m
_cell_length_a   2.92948171
_cell_length_b   2.92948171
_cell_length_c   6.51595915
_cell_angle_alpha   77.00931509
_cell_angle_beta   77.00931509
_cell_angle_gamma   60.00000652
_symmetry_Int_Tables_number   166
_chemical_formula_structural   Mn1O1.5
_chemical_formula_sum   'Mn1 O1.5'
_cell_volume   46.76748021
_cell_formula_units_Z   1
loop_
 _symmetry_equiv_pos_site_id
 _symmetry_equiv_pos_as_xyz
  1  'x, y, z'
  2  '-x, -y, -z'
  3  '-x-y-z, x, z'
  4  'x+y+z, -x, -z'
  5  'y, -x-y-z, z'
  6  '-y, x+y+z, -z'
  7  '-x, x+y+z, -z'
  8  'x, -x-y-z, z'
  9  'x+y+z, -y, -z'
  10  '-x-y-z, y, z'
  11  '-y, -x, -z'
  12  'y, x, z'
loop_
 _atom_site_type_symbol
 _atom_site_label
 _atom_site_symmetry_multiplicity
 _atom_site_fract_x
 _atom_site_fract_y
 _atom_site_fract_z
 _atom_site_occupancy
  Mn  Mn0  1  0.00000000  0.00000000  0.00000000  1.0
  O  O1  2  0.28258400  0.28258400  0.15224800  0.75
