# generated using pymatgen
data_Mn2O3
_symmetry_space_group_name_H-M   P-1
_cell_length_a   10.49784812
_cell_length_b   10.55604269
_cell_length_c   10.64553666
_cell_angle_alpha   119.58600421
_cell_angle_beta   90.02266954
_cell_angle_gamma   60.18498725
_symmetry_Int_Tables_number   2
_chemical_formula_structural   Mn2O3
_chemical_formula_sum   'Mn32 O48'
_cell_volume   841.82162160
_cell_formula_units_Z   16
loop_
 _symmetry_equiv_pos_site_id
 _symmetry_equiv_pos_as_xyz
  1  'x, y, z'
  2  '-x, -y, -z'
loop_
 _atom_site_type_symbol
 _atom_site_label
 _atom_site_symmetry_multiplicity
 _atom_site_fract_x
 _atom_site_fract_y
 _atom_site_fract_z
 _atom_site_occupancy
  Mn  Mn0  2  0.11389400  0.76816200  0.65248800  1.0
  Mn  Mn1  2  0.11900900  0.24978300  0.61871000  1.0
  Mn  Mn2  2  0.13389100  0.72740300  0.11763900  1.0
  Mn  Mn3  2  0.13855600  0.25334900  0.11844400  1.0
  Mn  Mn4  2  0.23577300  0.52179400  0.28649600  1.0
  Mn  Mn5  2  0.24880300  0.49980000  0.75561000  1.0
  Mn  Mn6  2  0.24962400  0.00158500  0.75450000  1.0
  Mn  Mn7  2  0.25111100  0.99624900  0.24614800  1.0
  Mn  Mn8  2  0.36588700  0.74661200  0.37987900  1.0
  Mn  Mn9  2  0.36932900  0.26406300  0.37888900  1.0
  Mn  Mn10  2  0.38729900  0.74564600  0.88323100  1.0
  Mn  Mn11  2  0.38951100  0.22462700  0.83788200  1.0
  Mn  Mn12  1  0.00000000  0.00000000  0.00000000  1.0
  Mn  Mn13  1  0.00000000  0.00000000  0.50000000  1.0
  Mn  Mn14  1  0.00000000  0.50000000  0.00000000  1.0
  Mn  Mn15  1  0.00000000  0.50000000  0.50000000  1.0
  Mn  Mn16  1  0.50000000  0.00000000  0.00000000  1.0
  Mn  Mn17  1  0.50000000  0.00000000  0.50000000  1.0
  Mn  Mn18  1  0.50000000  0.50000000  0.00000000  1.0
  Mn  Mn19  1  0.50000000  0.50000000  0.50000000  1.0
  O  O20  2  0.00503900  0.30077500  0.47653200  1.0
  O  O21  2  0.02127300  0.79668200  0.31842700  1.0
  O  O22  2  0.04965400  0.49316000  0.17664900  1.0
  O  O23  2  0.06158000  0.21160700  0.92951400  1.0
  O  O24  2  0.06277100  0.70879500  0.78383200  1.0
  O  O25  2  0.07298000  0.98835300  0.20200900  1.0
  O  O26  2  0.16992100  0.83003700  0.52681500  1.0
  O  O27  2  0.18180600  0.34340500  0.32007000  1.0
  O  O28  2  0.19940700  0.46193500  0.94406500  1.0
  O  O29  2  0.21728000  0.85434900  0.79554700  1.0
  O  O30  2  0.21966500  0.34459700  0.57877600  1.0
  O  O31  2  0.22525600  0.97708200  0.41611600  1.0
  O  O32  2  0.27344200  0.01502800  0.07410000  1.0
  O  O33  2  0.27658300  0.66147300  0.93095400  1.0
  O  O34  2  0.28477200  0.13759400  0.69446100  1.0
  O  O35  2  0.29995900  0.52544200  0.50513500  1.0
  O  O36  2  0.31688300  0.63128600  0.17588200  1.0
  O  O37  2  0.33986600  0.14173000  0.94293500  1.0
  O  O38  2  0.42183400  0.01991000  0.30544400  1.0
  O  O39  2  0.43685000  0.79072700  0.58175600  1.0
  O  O40  2  0.44559900  0.27874600  0.70321300  1.0
  O  O41  2  0.45945000  0.22527800  0.17677200  1.0
  O  O42  2  0.47889800  0.71762100  0.05214700  1.0
  O  O43  2  0.49111600  0.50036900  0.31877500  1.0
