# generated using pymatgen
data_Mn2O3
_symmetry_space_group_name_H-M   Fdd2
_cell_length_a   4.16295600
_cell_length_b   8.87091576
_cell_length_c   14.59050775
_cell_angle_alpha   88.08173517
_cell_angle_beta   81.79821682
_cell_angle_gamma   76.42955499
_symmetry_Int_Tables_number   43
_chemical_formula_structural   Mn2O3
_chemical_formula_sum   'Mn2 O3'
_cell_volume   518.41639629
_cell_formula_units_Z   1
loop_
 _symmetry_equiv_pos_site_id
 _symmetry_equiv_pos_as_xyz
  1  'x, y, z'
  2  'x+y+z, -y, -z'
  3  'x+y+3/4, -y+1/2, z+1/2'
  4  'x+z+3/4, y+1/2, -z+1/2'
loop_
 _atom_site_type_symbol
 _atom_site_label
 _atom_site_symmetry_multiplicity
 _atom_site_fract_x
 _atom_site_fract_y
 _atom_site_fract_z
 _atom_site_occupancy
  Mn  Mn0  2  0.50003100  0.50000000  0.50000000  1.0
  O  O1  4  0.46170600  0.65048800  0.42606900  0.75
