# generated using pymatgen
data_Mn2O3
_symmetry_space_group_name_H-M   Pna2_1
_cell_length_a   5.30426900
_cell_length_b   8.87067000
_cell_length_c   9.56715800
_cell_angle_alpha   90.00000000
_cell_angle_beta   90.00000000
_cell_angle_gamma   90.00000000
_symmetry_Int_Tables_number   33
_chemical_formula_structural   Mn2O3
_chemical_formula_sum   'Mn16 O24'
_cell_volume   450.15793537
_cell_formula_units_Z   8
loop_
 _symmetry_equiv_pos_site_id
 _symmetry_equiv_pos_as_xyz
  1  'x, y, z'
  2  '-x, -y, z+1/2'
  3  '-x+1/2, y+1/2, z+1/2'
  4  'x+1/2, -y+1/2, z'
loop_
 _atom_site_type_symbol
 _atom_site_label
 _atom_site_symmetry_multiplicity
 _atom_site_fract_x
 _atom_site_fract_y
 _atom_site_fract_z
 _atom_site_occupancy
  Mn  Mn0  4  0.16504200  0.01784400  0.86326200  1.0
  Mn  Mn1  4  0.17115700  0.66188600  0.87179800  1.0
  Mn  Mn2  4  0.17530500  0.33970700  0.64334500  1.0
  Mn  Mn3  4  0.18521300  0.34808900  0.05443700  1.0
  O  O4  4  0.02780400  0.81972900  0.99598700  1.0
  O  O5  4  0.03223000  0.48080100  0.49466700  1.0
  O  O6  4  0.03269600  0.16006200  0.99248300  1.0
  O  O7  4  0.16304700  0.66887400  0.23446700  1.0
  O  O8  4  0.16599800  0.00113700  0.27216600  1.0
  O  O9  4  0.18081300  0.33695200  0.26479800  1.0
