# generated using pymatgen
data_Mn2O3
_symmetry_space_group_name_H-M   P4_2/mnm
_cell_length_a   2.94225900
_cell_length_b   4.45814200
_cell_length_c   4.45810950
_cell_angle_alpha   89.99781516
_cell_angle_beta   89.99752959
_cell_angle_gamma   89.99999998
_symmetry_Int_Tables_number   136
_chemical_formula_structural   Mn2O3
_chemical_formula_sum   'Mn2 O3'
_cell_volume   58.47705976
_cell_formula_units_Z   1
loop_
 _symmetry_equiv_pos_site_id
 _symmetry_equiv_pos_as_xyz
  1  'x, y, z'
  2  '-x, -y, -z'
  3  'x+1/2, z+1/2, -y+1/2'
  4  '-x+1/2, -z+1/2, y+1/2'
  5  'x, -y, -z'
  6  '-x, y, z'
  7  'x+1/2, -z+1/2, y+1/2'
  8  '-x+1/2, z+1/2, -y+1/2'
  9  '-x+1/2, -y+1/2, z+1/2'
  10  'x+1/2, y+1/2, -z+1/2'
  11  '-x, -z, -y'
  12  'x, z, y'
  13  '-x+1/2, y+1/2, -z+1/2'
  14  'x+1/2, -y+1/2, z+1/2'
  15  '-x, z, y'
  16  'x, -z, -y'
loop_
 _atom_site_type_symbol
 _atom_site_label
 _atom_site_symmetry_multiplicity
 _atom_site_fract_x
 _atom_site_fract_y
 _atom_site_fract_z
 _atom_site_occupancy
  Mn  Mn0  2  0.00000000  0.00000000  0.00000000  1.0
  O  O1  4  0.00000500  0.69402600  0.30595700  0.75
