# generated using pymatgen
data_Zr0.99Mo2.01
_symmetry_space_group_name_H-M   Fmmm
_cell_length_a   2.89611771
_cell_length_b   2.89611771
_cell_length_c   7.05171879
_cell_angle_alpha   97.42032302
_cell_angle_beta   97.42032320
_cell_angle_gamma   111.78234414
_symmetry_Int_Tables_number   69
_chemical_formula_structural   Zr0.99Mo2.01
_chemical_formula_sum   'Zr0.99 Mo2.01'
_cell_volume   53.44682545
_cell_formula_units_Z   1
loop_
 _symmetry_equiv_pos_site_id
 _symmetry_equiv_pos_as_xyz
  1  'x, y, z'
  2  '-x, -y, -z'
  3  '-x+z, -y+z, z'
  4  'x-z, y-z, -z'
  5  'y-z, x-z, -z'
  6  '-y+z, -x+z, z'
  7  '-y, -x, -z'
  8  'y, x, z'
loop_
 _atom_site_type_symbol
 _atom_site_label
 _atom_site_symmetry_multiplicity
 _atom_site_fract_x
 _atom_site_fract_y
 _atom_site_fract_z
 _atom_site_occupancy
  Zr  Zr0  1  0.00000000  0.00000000  0.00000000  0.99
  Mo  Mo1  1  0.00000000  0.00000000  0.00000000  0.01
  Mo  Mo2  2  0.32439500  0.32439500  0.64879000  1.0
