# generated using pymatgen
data_Mo0.84O2.16
_symmetry_space_group_name_H-M   C2/m
_cell_length_a   3.12489800
_cell_length_b   3.24730029
_cell_length_c   5.00923873
_cell_angle_alpha   72.26558377
_cell_angle_beta   71.82541743
_cell_angle_gamma   61.23925204
_symmetry_Int_Tables_number   12
_chemical_formula_structural   Mo0.84O2.16
_chemical_formula_sum   'Mo0.84 O2.16'
_cell_volume   41.60232887
_cell_formula_units_Z   1
loop_
 _symmetry_equiv_pos_site_id
 _symmetry_equiv_pos_as_xyz
  1  'x, y, z'
  2  '-x, -y, -z'
  3  'x+y+z, -y, -z'
  4  '-x-y-z, y, z'
loop_
 _atom_site_type_symbol
 _atom_site_label
 _atom_site_symmetry_multiplicity
 _atom_site_fract_x
 _atom_site_fract_y
 _atom_site_fract_z
 _atom_site_occupancy
  Mo  Mo0  1  0.00000000  0.00000000  0.00000000  0.84
  O  O1  1  0.00000000  0.00000000  0.00000000  0.16
  O  O2  2  0.26461000  0.26100100  0.20977900  1.0
