# generated using pymatgen
data_Tc1.1Mo0.9
_symmetry_space_group_name_H-M   Cmmm
_cell_length_a   2.72374391
_cell_length_b   2.72374391
_cell_length_c   4.42249100
_cell_angle_alpha   90.00000000
_cell_angle_beta   90.00000000
_cell_angle_gamma   110.67779676
_symmetry_Int_Tables_number   65
_chemical_formula_structural   Tc1.1Mo0.9
_chemical_formula_sum   'Tc1.1 Mo0.9'
_cell_volume   30.69593506
_cell_formula_units_Z   1
loop_
 _symmetry_equiv_pos_site_id
 _symmetry_equiv_pos_as_xyz
  1  'x, y, z'
  2  '-x, -y, -z'
  3  '-x, -y, z'
  4  'x, y, -z'
  5  'y, x, -z'
  6  '-y, -x, z'
  7  '-y, -x, -z'
  8  'y, x, z'
loop_
 _atom_site_type_symbol
 _atom_site_label
 _atom_site_symmetry_multiplicity
 _atom_site_fract_x
 _atom_site_fract_y
 _atom_site_fract_z
 _atom_site_occupancy
  Tc  Tc0  1  0.50000000  0.50000000  0.50000000  1.0
  Mo  Mo1  1  0.00000000  0.00000000  0.00000000  0.9
  Tc  Tc2  1  0.00000000  0.00000000  0.00000000  0.1
