# generated using pymatgen
data_Mo3.36O8.64
_symmetry_space_group_name_H-M   C2/c
_cell_length_a   6.23180100
_cell_length_b   6.24051193
_cell_length_c   6.39065079
_cell_angle_alpha   118.26972041
_cell_angle_beta   117.96172761
_cell_angle_gamma   91.42424315
_symmetry_Int_Tables_number   15
_chemical_formula_structural   Mo3.36O8.64
_chemical_formula_sum   'Mo3.36 O8.64'
_cell_volume   183.33605851
_cell_formula_units_Z   1
loop_
 _symmetry_equiv_pos_site_id
 _symmetry_equiv_pos_as_xyz
  1  'x, y, z'
  2  '-x, -y, -z'
  3  '-y, -x, -z+1/2'
  4  'y, x, z+1/2'
loop_
 _atom_site_type_symbol
 _atom_site_label
 _atom_site_symmetry_multiplicity
 _atom_site_fract_x
 _atom_site_fract_y
 _atom_site_fract_z
 _atom_site_occupancy
  Mo  Mo0  2  0.00000000  0.50000000  0.50000000  0.84
  O  O1  2  0.00000000  0.50000000  0.50000000  0.16
  Mo  Mo2  2  0.50000000  0.50000000  0.00000000  0.84
  O  O3  2  0.50000000  0.50000000  0.00000000  0.16
  O  O4  4  0.26359100  0.72126800  0.95223600  1.0
  O  O5  4  0.26903200  0.31135500  0.54776400  1.0
