# generated using pymatgen
data_V2.91Si1Mo0.09
_symmetry_space_group_name_H-M   Im-3m
_cell_length_a   4.26255279
_cell_length_b   4.26255279
_cell_length_c   4.26255279
_cell_angle_alpha   109.47122063
_cell_angle_beta   109.47122064
_cell_angle_gamma   109.47122064
_symmetry_Int_Tables_number   229
_chemical_formula_structural   V2.91Si1Mo0.09
_chemical_formula_sum   'V2.91 Si1 Mo0.09'
_cell_volume   59.61937528
_cell_formula_units_Z   1
loop_
 _symmetry_equiv_pos_site_id
 _symmetry_equiv_pos_as_xyz
  1  'x, y, z'
  2  '-x, -y, -z'
  3  '-y+z, z, -x+z'
  4  'y-z, -z, x-z'
  5  '-x, -x+z, -x+y'
  6  'x, x-z, x-y'
  7  'y-z, -x+y, y'
  8  '-y+z, x-y, -y'
  9  '-y+z, -y, x-y'
  10  'y-z, y, -x+y'
  11  '-x, -z, -y'
  12  'x, z, y'
  13  'y-z, x-z, -z'
  14  '-y+z, -x+z, z'
  15  'x, x-y, x-z'
  16  '-x, -x+y, -x+z'
  17  'z, x, y'
  18  '-z, -x, -y'
  19  '-x+z, -y+z, z'
  20  'x-z, y-z, -z'
  21  '-x+y, -x, -x+z'
  22  'x-y, x, x-z'
  23  'y, y-z, -x+y'
  24  '-y, -y+z, x-y'
  25  'x-y, -y+z, -y'
  26  '-x+y, y-z, y'
  27  '-y, -x, -z'
  28  'y, x, z'
  29  '-z, y-z, x-z'
  30  'z, -y+z, -x+z'
  31  'x-z, x, x-y'
  32  '-x+z, -x, -x+y'
  33  'y, z, x'
  34  '-y, -z, -x'
  35  'z, -x+z, -y+z'
  36  '-z, x-z, y-z'
  37  '-x+z, -x+y, -x'
  38  'x-z, x-y, x'
  39  '-x+y, y, y-z'
  40  'x-y, -y, -y+z'
  41  '-y, x-y, -y+z'
  42  'y, -x+y, y-z'
  43  '-z, -y, -x'
  44  'z, y, x'
  45  'x-z, -z, y-z'
  46  '-x+z, z, -y+z'
  47  'x-y, x-z, x'
  48  '-x+y, -x+z, -x'
loop_
 _atom_site_type_symbol
 _atom_site_label
 _atom_site_symmetry_multiplicity
 _atom_site_fract_x
 _atom_site_fract_y
 _atom_site_fract_z
 _atom_site_occupancy
  V  V0  3  0.00000000  0.50000000  0.50000000  0.97
  Mo  Mo1  3  0.00000000  0.50000000  0.50000000  0.03
  Si  Si2  1  0.00000000  0.00000000  0.00000000  1.0
