# generated using pymatgen
data_Mo15Se19
_symmetry_space_group_name_H-M   P6_3/m
_cell_length_a   9.62931800
_cell_length_b   9.62931799
_cell_length_c   19.85199600
_cell_angle_alpha   90.00000000
_cell_angle_beta   90.00000000
_cell_angle_gamma   120.00000002
_symmetry_Int_Tables_number   176
_chemical_formula_structural   Mo15Se19
_chemical_formula_sum   'Mo30 Se38'
_cell_volume   1594.13783167
_cell_formula_units_Z   2
loop_
 _symmetry_equiv_pos_site_id
 _symmetry_equiv_pos_as_xyz
  1  'x, y, z'
  2  '-x, -y, -z'
  3  'x-y, x, z+1/2'
  4  '-x+y, -x, -z+1/2'
  5  '-y, x-y, z'
  6  'y, -x+y, -z'
  7  '-x, -y, z+1/2'
  8  'x, y, -z+1/2'
  9  '-x+y, -x, z'
  10  'x-y, x, -z'
  11  'y, -x+y, z+1/2'
  12  '-y, x-y, -z+1/2'
loop_
 _atom_site_type_symbol
 _atom_site_label
 _atom_site_symmetry_multiplicity
 _atom_site_fract_x
 _atom_site_fract_y
 _atom_site_fract_z
 _atom_site_occupancy
  Mo  Mo0  12  0.02101100  0.84996100  0.55965200  1.0
  Mo  Mo1  12  0.18296100  0.49552900  0.63343500  1.0
  Mo  Mo2  6  0.16537000  0.65328900  0.75000000  1.0
  Se  Se3  12  0.00307100  0.62747200  0.64389100  1.0
  Se  Se4  12  0.03538900  0.70831900  0.04805900  1.0
  Se  Se5  6  0.03812000  0.34207200  0.75000000  1.0
  Se  Se6  4  0.00000000  0.00000000  0.16118700  1.0
  Se  Se7  4  0.33333333  0.66666667  0.53188300  1.0
