# generated using pymatgen
data_Mo15Se19
_symmetry_space_group_name_H-M   R-3c
_cell_length_a   9.68094296
_cell_length_b   9.68094296
_cell_length_c   20.57848667
_cell_angle_alpha   76.39541157
_cell_angle_beta   76.39541157
_cell_angle_gamma   60.00000715
_symmetry_Int_Tables_number   167
_chemical_formula_structural   Mo15Se19
_chemical_formula_sum   'Mo30 Se38'
_cell_volume   1607.45398888
_cell_formula_units_Z   2
loop_
 _symmetry_equiv_pos_site_id
 _symmetry_equiv_pos_as_xyz
  1  'x, y, z'
  2  '-x, -y, -z'
  3  '-x-y-z, x, z'
  4  'x+y+z, -x, -z'
  5  'y, -x-y-z, z'
  6  '-y, x+y+z, -z'
  7  '-x+1/2, x+y+z+1/2, -z+1/2'
  8  'x+1/2, -x-y-z+1/2, z+1/2'
  9  'x+y+z+1/2, -y+1/2, -z+1/2'
  10  '-x-y-z+1/2, y+1/2, z+1/2'
  11  '-y+1/2, -x+1/2, -z+1/2'
  12  'y+1/2, x+1/2, z+1/2'
loop_
 _atom_site_type_symbol
 _atom_site_label
 _atom_site_symmetry_multiplicity
 _atom_site_fract_x
 _atom_site_fract_y
 _atom_site_fract_z
 _atom_site_occupancy
  Mo  Mo0  12  0.00223100  0.12835300  0.05953200  1.0
  Mo  Mo1  12  0.04392700  0.36560500  0.36669100  1.0
  Mo  Mo2  6  0.08932600  0.25000000  0.25000000  1.0
  Se  Se3  12  0.03875700  0.68605600  0.85567300  1.0
  Se  Se4  12  0.05294900  0.30627800  0.95201700  1.0
  Se  Se5  6  0.05977000  0.44023000  0.75000000  1.0
  Se  Se6  4  0.05388400  0.05388400  0.83834800  1.0
  Se  Se7  4  0.17717400  0.17717400  0.46847800  1.0
