# generated using pymatgen
data_Na2Mo15Se19
_symmetry_space_group_name_H-M   R-3c
_cell_length_a   9.75643153
_cell_length_b   9.75643153
_cell_length_c   20.40120484
_cell_angle_alpha   76.16574054
_cell_angle_beta   76.16574054
_cell_angle_gamma   60.00000322
_symmetry_Int_Tables_number   167
_chemical_formula_structural   Na2Mo15Se19
_chemical_formula_sum   'Na4 Mo30 Se38'
_cell_volume   1616.40220683
_cell_formula_units_Z   2
loop_
 _symmetry_equiv_pos_site_id
 _symmetry_equiv_pos_as_xyz
  1  'x, y, z'
  2  '-x, -y, -z'
  3  '-x-y-z, x, z'
  4  'x+y+z, -x, -z'
  5  'y, -x-y-z, z'
  6  '-y, x+y+z, -z'
  7  '-x+1/2, x+y+z+1/2, -z+1/2'
  8  'x+1/2, -x-y-z+1/2, z+1/2'
  9  'x+y+z+1/2, -y+1/2, -z+1/2'
  10  '-x-y-z+1/2, y+1/2, z+1/2'
  11  '-y+1/2, -x+1/2, -z+1/2'
  12  'y+1/2, x+1/2, z+1/2'
loop_
 _atom_site_type_symbol
 _atom_site_label
 _atom_site_symmetry_multiplicity
 _atom_site_fract_x
 _atom_site_fract_y
 _atom_site_fract_z
 _atom_site_occupancy
  Na  Na0  4  0.11388600  0.11388600  0.65834200  1.0
  Mo  Mo1  12  0.00251600  0.81175100  0.05860100  1.0
  Mo  Mo2  12  0.04739800  0.22492800  0.36718900  1.0
  Mo  Mo3  6  0.09082900  0.40917100  0.25000000  1.0
  Se  Se4  12  0.04059300  0.42083000  0.85643200  1.0
  Se  Se5  12  0.05703800  0.68984900  0.95062900  1.0
  Se  Se6  6  0.05834000  0.75000000  0.75000000  1.0
  Se  Se7  4  0.05425800  0.05425800  0.83722600  1.0
  Se  Se8  4  0.17623800  0.17623800  0.47128600  1.0
