# generated using pymatgen
data_Sn2Mo15Se19
_symmetry_space_group_name_H-M   R-3c
_cell_length_a   9.83194384
_cell_length_b   9.83194384
_cell_length_c   19.99848957
_cell_angle_alpha   75.76986842
_cell_angle_beta   75.76986842
_cell_angle_gamma   60.00000109
_symmetry_Int_Tables_number   167
_chemical_formula_structural   Sn2Mo15Se19
_chemical_formula_sum   'Sn4 Mo30 Se38'
_cell_volume   1605.33764913
_cell_formula_units_Z   2
loop_
 _symmetry_equiv_pos_site_id
 _symmetry_equiv_pos_as_xyz
  1  'x, y, z'
  2  '-x, -y, -z'
  3  '-x-y-z, x, z'
  4  'x+y+z, -x, -z'
  5  'y, -x-y-z, z'
  6  '-y, x+y+z, -z'
  7  '-x+1/2, x+y+z+1/2, -z+1/2'
  8  'x+1/2, -x-y-z+1/2, z+1/2'
  9  'x+y+z+1/2, -y+1/2, -z+1/2'
  10  '-x-y-z+1/2, y+1/2, z+1/2'
  11  '-y+1/2, -x+1/2, -z+1/2'
  12  'y+1/2, x+1/2, z+1/2'
loop_
 _atom_site_type_symbol
 _atom_site_label
 _atom_site_symmetry_multiplicity
 _atom_site_fract_x
 _atom_site_fract_y
 _atom_site_fract_z
 _atom_site_occupancy
  Sn  Sn0  4  0.11629100  0.11629100  0.65112700  1.0
  Mo  Mo1  12  0.00014500  0.18675200  0.94026400  1.0
  Mo  Mo2  12  0.04955100  0.22252600  0.36825200  1.0
  Mo  Mo3  6  0.09056100  0.40943900  0.25000000  1.0
  Se  Se4  12  0.04660300  0.42208300  0.85792000  1.0
  Se  Se5  12  0.05769600  0.69323700  0.94837300  1.0
  Se  Se6  6  0.05703800  0.75000000  0.75000000  1.0
  Se  Se7  4  0.05569800  0.05569800  0.83290600  1.0
  Se  Se8  4  0.17478600  0.17478600  0.47564200  1.0
