# generated using pymatgen
data_MoO2
_symmetry_space_group_name_H-M   Pnma
_cell_length_a   3.28447200
_cell_length_b   9.16009600
_cell_length_c   11.10545600
_cell_angle_alpha   90.00000000
_cell_angle_beta   90.00000000
_cell_angle_gamma   90.00000000
_symmetry_Int_Tables_number   62
_chemical_formula_structural   MoO2
_chemical_formula_sum   'Mo8 O16'
_cell_volume   334.11962465
_cell_formula_units_Z   8
loop_
 _symmetry_equiv_pos_site_id
 _symmetry_equiv_pos_as_xyz
  1  'x, y, z'
  2  '-x, -y, -z'
  3  '-x, -y+1/2, z+1/2'
  4  'x, y+1/2, -z+1/2'
  5  '-x+1/2, y+1/2, -z+1/2'
  6  'x+1/2, -y+1/2, z+1/2'
  7  'x+1/2, -y, -z'
  8  '-x+1/2, y, z'
loop_
 _atom_site_type_symbol
 _atom_site_label
 _atom_site_symmetry_multiplicity
 _atom_site_fract_x
 _atom_site_fract_y
 _atom_site_fract_z
 _atom_site_occupancy
  Mo  Mo0  4  0.25000000  0.06255200  0.38474700  1.0
  Mo  Mo1  4  0.25000000  0.08014500  0.89185400  1.0
  O  O2  4  0.25000000  0.06104700  0.07249900  1.0
  O  O3  4  0.25000000  0.28083400  0.35892200  1.0
  O  O4  4  0.25000000  0.39196900  0.00129700  1.0
  O  O5  4  0.25000000  0.49801900  0.77755400  1.0
