# generated using pymatgen
data_MoO2
_symmetry_space_group_name_H-M   Imma
_cell_length_a   6.07664200
_cell_length_b   6.25272240
_cell_length_c   6.25272240
_cell_angle_alpha   64.92115367
_cell_angle_beta   60.92725368
_cell_angle_gamma   60.92725368
_symmetry_Int_Tables_number   74
_chemical_formula_structural   MoO2
_chemical_formula_sum   'Mo4 O8'
_cell_volume   175.91299477
_cell_formula_units_Z   4
loop_
 _symmetry_equiv_pos_site_id
 _symmetry_equiv_pos_as_xyz
  1  'x, y, z'
  2  '-x, -y, -z'
  3  '-x-y-z, z+1/2, y+1/2'
  4  'x+y+z, -z+1/2, -y+1/2'
  5  'x+y+z, -y, -z'
  6  '-x-y-z, y, z'
  7  '-x, -z+1/2, -y+1/2'
  8  'x, z+1/2, y+1/2'
loop_
 _atom_site_type_symbol
 _atom_site_label
 _atom_site_symmetry_multiplicity
 _atom_site_fract_x
 _atom_site_fract_y
 _atom_site_fract_z
 _atom_site_occupancy
  Mo  Mo0  2  0.11958400  0.13041600  0.63041600  1.0
  Mo  Mo1  2  0.50000000  0.00000000  0.00000000  1.0
  O  O2  4  0.25491300  0.20449100  0.28568300  1.0
  O  O3  4  0.26831500  0.25054800  0.75054800  1.0
