# generated using pymatgen
data_MoO2
_symmetry_space_group_name_H-M   P2_1/c
_cell_length_a   4.92533600
_cell_length_b   5.59928278
_cell_length_c   5.64034934
_cell_angle_alpha   119.11011366
_cell_angle_beta   90.00000000
_cell_angle_gamma   90.00000000
_symmetry_Int_Tables_number   14
_chemical_formula_structural   MoO2
_chemical_formula_sum   'Mo4 O8'
_cell_volume   135.90324429
_cell_formula_units_Z   4
loop_
 _symmetry_equiv_pos_site_id
 _symmetry_equiv_pos_as_xyz
  1  'x, y, z'
  2  '-x, -y+1/2, -z+1/2'
  3  'x+1/2, -y, -z'
  4  '-x+1/2, y+1/2, z+1/2'
loop_
 _atom_site_type_symbol
 _atom_site_label
 _atom_site_symmetry_multiplicity
 _atom_site_fract_x
 _atom_site_fract_y
 _atom_site_fract_z
 _atom_site_occupancy
  Mo  Mo0  4  0.00236300  0.76638500  0.53540100  1.0
  O  O1  4  0.20598800  0.95272500  0.34294600  1.0
  O  O2  4  0.22530400  0.98607000  0.87328500  1.0
