# generated using pymatgen
data_MoO2
_symmetry_space_group_name_H-M   I4/m
_cell_length_a   3.26409400
_cell_length_b   7.68673117
_cell_length_c   7.68673117
_cell_angle_alpha   87.41624236
_cell_angle_beta   77.74165326
_cell_angle_gamma   77.74165327
_symmetry_Int_Tables_number   87
_chemical_formula_structural   MoO2
_chemical_formula_sum   'Mo4 O8'
_cell_volume   184.16755599
_cell_formula_units_Z   4
loop_
 _symmetry_equiv_pos_site_id
 _symmetry_equiv_pos_as_xyz
  1  'x, y, z'
  2  '-x, -y, -z'
  3  'x+y, z, -y'
  4  '-x-y, -z, y'
  5  'x+y+z, -y, -z'
  6  '-x-y-z, y, z'
  7  'x+z, -z, y'
  8  '-x-z, z, -y'
loop_
 _atom_site_type_symbol
 _atom_site_label
 _atom_site_symmetry_multiplicity
 _atom_site_fract_x
 _atom_site_fract_y
 _atom_site_fract_z
 _atom_site_occupancy
  Mo  Mo0  4  0.15778900  0.49912800  0.18529400  1.0
  O  O1  4  0.16142100  0.05391400  0.62324500  1.0
  O  O2  4  0.16179100  0.30457500  0.37184300  1.0
