# generated using pymatgen
data_MoPRu
_symmetry_space_group_name_H-M   Pnma
_cell_length_a   5.70473800
_cell_length_b   6.10519900
_cell_length_c   12.67771700
_cell_angle_alpha   90.00000000
_cell_angle_beta   90.00000000
_cell_angle_gamma   90.00000000
_symmetry_Int_Tables_number   62
_chemical_formula_structural   MoPRu
_chemical_formula_sum   'Mo4 P4 Ru4'
_cell_volume   441.54663649
_cell_formula_units_Z   4
loop_
 _symmetry_equiv_pos_site_id
 _symmetry_equiv_pos_as_xyz
  1  'x, y, z'
  2  '-x, -y, -z'
  3  '-x+1/2, y+1/2, -z'
  4  'x+1/2, -y+1/2, z'
  5  'x+1/2, -y+1/2, -z+1/2'
  6  '-x+1/2, y+1/2, z+1/2'
  7  '-x, -y, z+1/2'
  8  'x, y, -z+1/2'
loop_
 _atom_site_type_symbol
 _atom_site_label
 _atom_site_symmetry_multiplicity
 _atom_site_fract_x
 _atom_site_fract_y
 _atom_site_fract_z
 _atom_site_occupancy
  Mo  Mo0  4  0.07176900  0.15761200  0.75000000  1.0
  P  P1  4  0.20469700  0.52099100  0.75000000  1.0
  Ru  Ru2  4  0.16775100  0.37008600  0.25000000  1.0
