# generated using pymatgen
data_MoP2
_symmetry_space_group_name_H-M   Cmc2_1
_cell_length_a   3.15860600
_cell_length_b   5.01065900
_cell_length_c   5.84205085
_cell_angle_alpha   90.00000000
_cell_angle_beta   105.68412263
_cell_angle_gamma   90.00000000
_symmetry_Int_Tables_number   36
_chemical_formula_structural   MoP2
_chemical_formula_sum   'Mo2 P4'
_cell_volume   89.01776694
_cell_formula_units_Z   2
loop_
 _symmetry_equiv_pos_site_id
 _symmetry_equiv_pos_as_xyz
  1  'x, y, z'
  2  '-x, y+1/2, -z'
  3  '-x+z, y, z'
  4  'x-z, y+1/2, -z'
loop_
 _atom_site_type_symbol
 _atom_site_label
 _atom_site_symmetry_multiplicity
 _atom_site_fract_x
 _atom_site_fract_y
 _atom_site_fract_z
 _atom_site_occupancy
  Mo  Mo0  2  0.09373500  0.50160900  0.18747000  1.0
  P  P1  2  0.29814900  0.30388500  0.59629800  1.0
  P  P2  2  0.43045700  0.61950600  0.86091400  1.0
