# generated using pymatgen
data_MoPRu
_symmetry_space_group_name_H-M   Pnma
_cell_length_a   3.90180300
_cell_length_b   6.04481600
_cell_length_c   6.97854500
_cell_angle_alpha   90.00000000
_cell_angle_beta   90.00000000
_cell_angle_gamma   90.00000000
_symmetry_Int_Tables_number   62
_chemical_formula_structural   MoPRu
_chemical_formula_sum   'Mo4 P4 Ru4'
_cell_volume   164.59373763
_cell_formula_units_Z   4
loop_
 _symmetry_equiv_pos_site_id
 _symmetry_equiv_pos_as_xyz
  1  'x, y, z'
  2  '-x, -y, -z'
  3  '-x, -y+1/2, z+1/2'
  4  'x, y+1/2, -z+1/2'
  5  '-x+1/2, y+1/2, -z+1/2'
  6  'x+1/2, -y+1/2, z+1/2'
  7  'x+1/2, -y, -z'
  8  '-x+1/2, y, z'
loop_
 _atom_site_type_symbol
 _atom_site_label
 _atom_site_symmetry_multiplicity
 _atom_site_fract_x
 _atom_site_fract_y
 _atom_site_fract_z
 _atom_site_occupancy
  Mo  Mo0  4  0.25000000  0.02615300  0.16858500  1.0
  P  P1  4  0.25000000  0.25602200  0.88295400  1.0
  Ru  Ru2  4  0.25000000  0.14092600  0.56845800  1.0
