# generated using pymatgen
data_MoSe2
_symmetry_space_group_name_H-M   R3m
_cell_length_a   3.32778736
_cell_length_b   3.32778736
_cell_length_c   7.60921765
_cell_angle_alpha   77.36917954
_cell_angle_beta   77.36917954
_cell_angle_gamma   60.00001280
_symmetry_Int_Tables_number   160
_chemical_formula_structural   MoSe2
_chemical_formula_sum   'Mo1 Se2'
_cell_volume   70.61171053
_cell_formula_units_Z   1
loop_
 _symmetry_equiv_pos_site_id
 _symmetry_equiv_pos_as_xyz
  1  'x, y, z'
  2  'y, -x-y-z, z'
  3  '-x-y-z, x, z'
  4  'y, x, z'
  5  '-x-y-z, y, z'
  6  'x, -x-y-z, z'
loop_
 _atom_site_type_symbol
 _atom_site_label
 _atom_site_symmetry_multiplicity
 _atom_site_fract_x
 _atom_site_fract_y
 _atom_site_fract_z
 _atom_site_occupancy
  Mo  Mo0  1  0.66677600  0.66677600  0.99967200  1.0
  Se  Se1  1  0.25771100  0.25771100  0.22686700  1.0
  Se  Se2  1  0.40918000  0.40918000  0.77246000  1.0
