# generated using pymatgen
data_MoS2
_symmetry_space_group_name_H-M   Pmmn
_cell_length_a   3.16298100
_cell_length_b   13.02096500
_cell_length_c   43.47651700
_cell_angle_alpha   90.00000000
_cell_angle_beta   90.00000000
_cell_angle_gamma   90.00000000
_symmetry_Int_Tables_number   59
_chemical_formula_structural   MoS2
_chemical_formula_sum   'Mo18 S36'
_cell_volume   1790.58317413
_cell_formula_units_Z   18
loop_
 _symmetry_equiv_pos_site_id
 _symmetry_equiv_pos_as_xyz
  1  'x, y, z'
  2  '-x, -y, z'
  3  'x+1/2, -y+1/2, -z'
  4  '-x+1/2, y+1/2, -z'
  5  '-x+1/2, -y+1/2, -z'
  6  'x+1/2, y+1/2, -z'
  7  '-x, y, z'
  8  'x, -y, z'
loop_
 _atom_site_type_symbol
 _atom_site_label
 _atom_site_symmetry_multiplicity
 _atom_site_fract_x
 _atom_site_fract_y
 _atom_site_fract_z
 _atom_site_occupancy
  Mo  Mo0  2  0.00000000  0.00000000  0.05303300  1.0
  Mo  Mo1  2  0.00000000  0.00000000  0.18044100  1.0
  Mo  Mo2  2  0.00000000  0.00000000  0.79693100  1.0
  Mo  Mo3  2  0.00000000  0.00000000  0.92532600  1.0
  Mo  Mo4  2  0.00000000  0.50000000  0.01078300  1.0
  Mo  Mo5  2  0.00000000  0.50000000  0.13864500  1.0
  Mo  Mo6  2  0.00000000  0.50000000  0.26278900  1.0
  Mo  Mo7  2  0.00000000  0.50000000  0.75572000  1.0
  Mo  Mo8  2  0.00000000  0.50000000  0.88318100  1.0
  S  S9  4  0.00000000  0.11575700  0.26683000  1.0
  S  S10  4  0.00000000  0.12025500  0.88276900  1.0
  S  S11  4  0.00000000  0.12046600  0.01059200  1.0
  S  S12  4  0.00000000  0.12056500  0.13818600  1.0
  S  S13  4  0.00000000  0.12543400  0.75420400  1.0
  S  S14  4  0.00000000  0.37954100  0.92558900  1.0
  S  S15  4  0.00000000  0.37956200  0.05326200  1.0
  S  S16  4  0.00000000  0.37977300  0.79805000  1.0
  S  S17  4  0.00000000  0.38003200  0.18124100  1.0
