# generated using pymatgen
data_Ti2NbMo
_symmetry_space_group_name_H-M   Immm
_cell_length_a   9.00267400
_cell_length_b   13.47489976
_cell_length_c   13.47489976
_cell_angle_alpha   64.33893353
_cell_angle_beta   70.48500987
_cell_angle_gamma   70.48500987
_symmetry_Int_Tables_number   71
_chemical_formula_structural   Ti2NbMo
_chemical_formula_sum   'Ti2 Nb1 Mo1'
_cell_volume   1353.83083455
_cell_formula_units_Z   1
loop_
 _symmetry_equiv_pos_site_id
 _symmetry_equiv_pos_as_xyz
  1  'x, y, z'
  2  '-x, -y, -z'
  3  '-x-y-z, z, y'
  4  'x+y+z, -z, -y'
  5  'x+y+z, -y, -z'
  6  '-x-y-z, y, z'
  7  '-x, -z, -y'
  8  'x, z, y'
loop_
 _atom_site_type_symbol
 _atom_site_label
 _atom_site_symmetry_multiplicity
 _atom_site_fract_x
 _atom_site_fract_y
 _atom_site_fract_z
 _atom_site_occupancy
  Ti  Ti0  2  0.25146100  0.00000000  0.00000000  1.0
  Nb  Nb1  1  0.00000000  0.00000000  0.00000000  1.0
  Mo  Mo2  1  0.50000000  0.00000000  0.00000000  1.0
