# generated using pymatgen
data_Mo2N
_symmetry_space_group_name_H-M   R-3m
_cell_length_a   2.90698574
_cell_length_b   2.90698574
_cell_length_c   5.27543342
_cell_angle_alpha   74.00693405
_cell_angle_beta   74.00693405
_cell_angle_gamma   60.00000595
_symmetry_Int_Tables_number   166
_chemical_formula_structural   Mo2N
_chemical_formula_sum   'Mo2 N1'
_cell_volume   36.60179005
_cell_formula_units_Z   1
loop_
 _symmetry_equiv_pos_site_id
 _symmetry_equiv_pos_as_xyz
  1  'x, y, z'
  2  '-x, -y, -z'
  3  '-x-y-z, x, z'
  4  'x+y+z, -x, -z'
  5  'y, -x-y-z, z'
  6  '-y, x+y+z, -z'
  7  '-x, x+y+z, -z'
  8  'x, -x-y-z, z'
  9  'x+y+z, -y, -z'
  10  '-x-y-z, y, z'
  11  '-y, -x, -z'
  12  'y, x, z'
loop_
 _atom_site_type_symbol
 _atom_site_label
 _atom_site_symmetry_multiplicity
 _atom_site_fract_x
 _atom_site_fract_y
 _atom_site_fract_z
 _atom_site_occupancy
  Mo  Mo0  2  0.24304400  0.24304400  0.27086800  1.0
  N  N1  1  0.00000000  0.00000000  0.00000000  1.0
