# generated using pymatgen
data_Mo3.6O9
_symmetry_space_group_name_H-M   P4/m
_cell_length_a   3.85187500
_cell_length_b   6.80374400
_cell_length_c   6.80374400
_cell_angle_alpha   90.00000000
_cell_angle_beta   90.00000000
_cell_angle_gamma   90.00000000
_symmetry_Int_Tables_number   83
_chemical_formula_structural   Mo3.6O9
_chemical_formula_sum   'Mo3.6 O9'
_cell_volume   178.30688531
_cell_formula_units_Z   1
loop_
 _symmetry_equiv_pos_site_id
 _symmetry_equiv_pos_as_xyz
  1  'x, y, z'
  2  '-x, -y, -z'
  3  'x, -z, y'
  4  '-x, z, -y'
  5  'x, -y, -z'
  6  '-x, y, z'
  7  'x, z, -y'
  8  '-x, -z, y'
loop_
 _atom_site_type_symbol
 _atom_site_label
 _atom_site_symmetry_multiplicity
 _atom_site_fract_x
 _atom_site_fract_y
 _atom_site_fract_z
 _atom_site_occupancy
  Mo  Mo0  4  0.50000000  0.19642300  0.62659200  0.9
  O  O1  4  0.00000000  0.20019800  0.63022200  1.0
  O  O2  4  0.50000000  0.10568400  0.33820700  1.0
  O  O3  1  0.50000000  0.50000000  0.50000000  1.0
