# generated using pymatgen
data_Mo3.2O8
_symmetry_space_group_name_H-M   Cmcm
_cell_length_a   3.18984600
_cell_length_b   5.27385373
_cell_length_c   10.50391900
_cell_angle_alpha   90.00000000
_cell_angle_beta   90.00000000
_cell_angle_gamma   107.60305943
_symmetry_Int_Tables_number   63
_chemical_formula_structural   Mo3.2O8
_chemical_formula_sum   'Mo3.2 O8'
_cell_volume   168.43082888
_cell_formula_units_Z   1
loop_
 _symmetry_equiv_pos_site_id
 _symmetry_equiv_pos_as_xyz
  1  'x, y, z'
  2  '-x, -y, -z'
  3  '-x, -y, z+1/2'
  4  'x, y, -z+1/2'
  5  'x-y, -y, -z'
  6  '-x+y, y, z'
  7  '-x+y, y, -z+1/2'
  8  'x-y, -y, z+1/2'
loop_
 _atom_site_type_symbol
 _atom_site_label
 _atom_site_symmetry_multiplicity
 _atom_site_fract_x
 _atom_site_fract_y
 _atom_site_fract_z
 _atom_site_occupancy
  Mo  Mo0  4  0.13309300  0.26618600  0.07510700  0.8
  O  O1  4  0.23960800  0.47921600  0.59752300  1.0
  O  O2  2  0.08000400  0.16000800  0.25000000  1.0
  O  O3  2  0.50000000  0.00000000  0.00000000  1.0
