# generated using pymatgen
data_Mo2O5
_symmetry_space_group_name_H-M   Pbam
_cell_length_a   3.71047500
_cell_length_b   5.95584500
_cell_length_c   9.94959500
_cell_angle_alpha   90.00000000
_cell_angle_beta   90.00000000
_cell_angle_gamma   90.00000000
_symmetry_Int_Tables_number   55
_chemical_formula_structural   Mo2O5
_chemical_formula_sum   'Mo4 O10'
_cell_volume   219.87623896
_cell_formula_units_Z   2
loop_
 _symmetry_equiv_pos_site_id
 _symmetry_equiv_pos_as_xyz
  1  'x, y, z'
  2  '-x, -y, -z'
  3  'x, -y, -z'
  4  '-x, y, z'
  5  '-x, y+1/2, -z+1/2'
  6  'x, -y+1/2, z+1/2'
  7  '-x, -y+1/2, z+1/2'
  8  'x, y+1/2, -z+1/2'
loop_
 _atom_site_type_symbol
 _atom_site_label
 _atom_site_symmetry_multiplicity
 _atom_site_fract_x
 _atom_site_fract_y
 _atom_site_fract_z
 _atom_site_occupancy
  Mo  Mo0  4  0.50000000  0.22779600  0.63386600  1.0
  O  O1  4  0.00000000  0.20945500  0.09991100  1.0
  O  O2  4  0.50000000  0.05198800  0.78399100  1.0
  O  O3  2  0.50000000  0.00000000  0.50000000  1.0
