# generated using pymatgen
data_Re2MoSe4
_symmetry_space_group_name_H-M   P1
_cell_length_a   6.73349722
_cell_length_b   6.73369800
_cell_length_c   6.73587233
_cell_angle_alpha   93.61647554
_cell_angle_beta   93.39700643
_cell_angle_gamma   93.56037432
_symmetry_Int_Tables_number   1
_chemical_formula_structural   Re2MoSe4
_chemical_formula_sum   'Re4 Mo2 Se8'
_cell_volume   303.60455755
_cell_formula_units_Z   2
loop_
 _symmetry_equiv_pos_site_id
 _symmetry_equiv_pos_as_xyz
  1  'x, y, z'
loop_
 _atom_site_type_symbol
 _atom_site_label
 _atom_site_symmetry_multiplicity
 _atom_site_fract_x
 _atom_site_fract_y
 _atom_site_fract_z
 _atom_site_occupancy
  Re  Re0  1  0.23608500  0.41544300  0.54675700  1.0
  Re  Re1  1  0.41365900  0.54664000  0.23540400  1.0
  Re  Re2  1  0.54559000  0.23630000  0.41381300  1.0
  Re  Re3  1  0.58591200  0.45392800  0.76299900  1.0
  Mo  Mo4  1  0.45524000  0.76557200  0.58653200  1.0
  Mo  Mo5  1  0.76480300  0.58695500  0.45263300  1.0
  Se  Se6  1  0.12794000  0.73000600  0.37016900  1.0
  Se  Se7  1  0.21368500  0.21406200  0.21464600  1.0
  Se  Se8  1  0.26754800  0.62851300  0.87482200  1.0
  Se  Se9  1  0.37010100  0.13026300  0.73203300  1.0
  Se  Se10  1  0.62933400  0.87455500  0.26377700  1.0
  Se  Se11  1  0.72999200  0.36953600  0.12445900  1.0
  Se  Se12  1  0.78796600  0.78489000  0.79047900  1.0
  Se  Se13  1  0.87214500  0.26333700  0.63147500  1.0
