# generated using pymatgen
data_Mo2S3
_symmetry_space_group_name_H-M   P2_1/m
_cell_length_a   3.20985700
_cell_length_b   6.17036400
_cell_length_c   8.70627230
_cell_angle_alpha   102.95757357
_cell_angle_beta   90.00000000
_cell_angle_gamma   90.00000000
_symmetry_Int_Tables_number   11
_chemical_formula_structural   Mo2S3
_chemical_formula_sum   'Mo4 S6'
_cell_volume   168.04545355
_cell_formula_units_Z   2
loop_
 _symmetry_equiv_pos_site_id
 _symmetry_equiv_pos_as_xyz
  1  'x, y, z'
  2  '-x, -y, -z'
  3  'x+1/2, -y, -z'
  4  '-x+1/2, y, z'
loop_
 _atom_site_type_symbol
 _atom_site_label
 _atom_site_symmetry_multiplicity
 _atom_site_fract_x
 _atom_site_fract_y
 _atom_site_fract_z
 _atom_site_occupancy
  Mo  Mo0  2  0.25000000  0.68747200  0.99087900  1.0
  Mo  Mo1  2  0.25000000  0.89253500  0.37358600  1.0
  S  S2  2  0.25000000  0.02626500  0.84219500  1.0
  S  S3  2  0.25000000  0.27347000  0.48675000  1.0
  S  S4  2  0.25000000  0.49327400  0.19646700  1.0
