# generated using pymatgen
data_Mo5.33333333S8
_symmetry_space_group_name_H-M   R-3
_cell_length_a   6.49357983
_cell_length_b   6.49357983
_cell_length_c   6.49357997
_cell_angle_alpha   91.32476057
_cell_angle_beta   91.32476057
_cell_angle_gamma   91.32475724
_symmetry_Int_Tables_number   148
_chemical_formula_structural   Mo5.33333333S8
_chemical_formula_sum   'Mo5.33333333 S8'
_cell_volume   273.58904776
_cell_formula_units_Z   1
loop_
 _symmetry_equiv_pos_site_id
 _symmetry_equiv_pos_as_xyz
  1  'x, y, z'
  2  '-x, -y, -z'
  3  'z, x, y'
  4  '-z, -x, -y'
  5  'y, z, x'
  6  '-y, -z, -x'
loop_
 _atom_site_type_symbol
 _atom_site_label
 _atom_site_symmetry_multiplicity
 _atom_site_fract_x
 _atom_site_fract_y
 _atom_site_fract_z
 _atom_site_occupancy
  Mo  Mo0  6  0.21212600  0.55050800  0.40535700  0.8888888888833333
  S  S1  6  0.13303200  0.38829200  0.73277600  1.0
  S  S2  2  0.22104100  0.22104100  0.22104100  1.0
