# generated using pymatgen
data_Mo3P
_symmetry_space_group_name_H-M   I-4
_cell_length_a   4.84761400
_cell_length_b   7.37999131
_cell_length_c   7.37999131
_cell_angle_alpha   83.80768854
_cell_angle_beta   70.82651859
_cell_angle_gamma   70.82651859
_symmetry_Int_Tables_number   82
_chemical_formula_structural   Mo3P
_chemical_formula_sum   'Mo12 P4'
_cell_volume   235.54280773
_cell_formula_units_Z   4
loop_
 _symmetry_equiv_pos_site_id
 _symmetry_equiv_pos_as_xyz
  1  'x, y, z'
  2  '-x-y, -z, y'
  3  'x+y+z, -y, -z'
  4  '-x-z, z, -y'
loop_
 _atom_site_type_symbol
 _atom_site_label
 _atom_site_symmetry_multiplicity
 _atom_site_fract_x
 _atom_site_fract_y
 _atom_site_fract_z
 _atom_site_occupancy
  Mo  Mo0  4  0.06682700  0.99666700  0.40397600  1.0
  Mo  Mo1  4  0.13867100  0.18460400  0.00304400  1.0
  Mo  Mo2  4  0.35747500  0.64522900  0.64310500  1.0
  P  P3  4  0.21058200  0.28795400  0.29457700  1.0
