# generated using pymatgen
data_Mo3P
_symmetry_space_group_name_H-M   I-42m
_cell_length_a   4.84961800
_cell_length_b   7.37836502
_cell_length_c   7.37836502
_cell_angle_alpha   83.79980461
_cell_angle_beta   70.81388897
_cell_angle_gamma   70.81388897
_symmetry_Int_Tables_number   121
_chemical_formula_structural   Mo3P
_chemical_formula_sum   'Mo12 P4'
_cell_volume   235.50022248
_cell_formula_units_Z   4
loop_
 _symmetry_equiv_pos_site_id
 _symmetry_equiv_pos_as_xyz
  1  'x, y, z'
  2  '-x-y, -z, y'
  3  'x+y+z, -y, -z'
  4  '-x-z, z, -y'
  5  '-x-y-z, z, y'
  6  'x+z, y, -z'
  7  '-x, -z, -y'
  8  'x+y, -y, z'
loop_
 _atom_site_type_symbol
 _atom_site_label
 _atom_site_symmetry_multiplicity
 _atom_site_fract_x
 _atom_site_fract_y
 _atom_site_fract_z
 _atom_site_occupancy
  Mo  Mo0  4  0.00000000  0.35476300  0.64523700  1.0
  Mo  Mo1  4  0.06837800  0.00000000  0.40197100  1.0
  Mo  Mo2  4  0.13925900  0.18541500  0.00000000  1.0
  P  P3  4  0.20839200  0.29160800  0.29160800  1.0
