# generated using pymatgen
data_Tl(TeMo)3
_symmetry_space_group_name_H-M   P2_1/m
_cell_length_a   4.61173000
_cell_length_b   9.68046666
_cell_length_c   9.77111585
_cell_angle_alpha   119.44189486
_cell_angle_beta   90.00000000
_cell_angle_gamma   90.00000000
_symmetry_Int_Tables_number   11
_chemical_formula_structural   Tl(TeMo)3
_chemical_formula_sum   'Tl2 Te6 Mo6'
_cell_volume   379.88311728
_cell_formula_units_Z   2
loop_
 _symmetry_equiv_pos_site_id
 _symmetry_equiv_pos_as_xyz
  1  'x, y, z'
  2  '-x, -y, -z'
  3  'x+1/2, -y, -z'
  4  '-x+1/2, y, z'
loop_
 _atom_site_type_symbol
 _atom_site_label
 _atom_site_symmetry_multiplicity
 _atom_site_fract_x
 _atom_site_fract_y
 _atom_site_fract_z
 _atom_site_occupancy
  Tl  Tl0  2  0.25000000  0.66894400  0.33560000  1.0
  Te  Te1  2  0.25000000  0.04736200  0.69009900  1.0
  Te  Te2  2  0.25000000  0.31039400  0.35218700  1.0
  Te  Te3  2  0.25000000  0.64212200  0.95702300  1.0
  Mo  Mo4  2  0.25000000  0.16797600  0.01974200  1.0
  Mo  Mo5  2  0.25000000  0.85384200  0.83452400  1.0
  Mo  Mo6  2  0.25000000  0.97807900  0.14559700  1.0
