# generated using pymatgen
data_Te4Mo3
_symmetry_space_group_name_H-M   R-3
_cell_length_a   7.18115738
_cell_length_b   7.18115738
_cell_length_c   7.18115712
_cell_angle_alpha   92.11952458
_cell_angle_beta   92.11952458
_cell_angle_gamma   92.11953135
_symmetry_Int_Tables_number   148
_chemical_formula_structural   Te4Mo3
_chemical_formula_sum   'Te8 Mo6'
_cell_volume   369.54587323
_cell_formula_units_Z   2
loop_
 _symmetry_equiv_pos_site_id
 _symmetry_equiv_pos_as_xyz
  1  'x, y, z'
  2  '-x, -y, -z'
  3  'z, x, y'
  4  '-z, -x, -y'
  5  'y, z, x'
  6  '-y, -z, -x'
loop_
 _atom_site_type_symbol
 _atom_site_label
 _atom_site_symmetry_multiplicity
 _atom_site_fract_x
 _atom_site_fract_y
 _atom_site_fract_z
 _atom_site_occupancy
  Te  Te0  6  0.11797000  0.75856900  0.38190500  1.0
  Te  Te1  2  0.28554300  0.28554300  0.28554300  1.0
  Mo  Mo2  6  0.04676100  0.91904900  0.74616800  1.0
