# generated using pymatgen
data_Mo4P3
_symmetry_space_group_name_H-M   Pnma
_cell_length_a   3.16370000
_cell_length_b   12.51058000
_cell_length_c   20.56808700
_cell_angle_alpha   90.00000000
_cell_angle_beta   90.00000000
_cell_angle_gamma   90.00000000
_symmetry_Int_Tables_number   62
_chemical_formula_structural   Mo4P3
_chemical_formula_sum   'Mo32 P24'
_cell_volume   814.07916442
_cell_formula_units_Z   8
loop_
 _symmetry_equiv_pos_site_id
 _symmetry_equiv_pos_as_xyz
  1  'x, y, z'
  2  '-x, -y, -z'
  3  '-x, -y+1/2, z+1/2'
  4  'x, y+1/2, -z+1/2'
  5  '-x+1/2, y+1/2, -z+1/2'
  6  'x+1/2, -y+1/2, z+1/2'
  7  'x+1/2, -y, -z'
  8  '-x+1/2, y, z'
loop_
 _atom_site_type_symbol
 _atom_site_label
 _atom_site_symmetry_multiplicity
 _atom_site_fract_x
 _atom_site_fract_y
 _atom_site_fract_z
 _atom_site_occupancy
  Mo  Mo0  4  0.25000000  0.00923500  0.17230500  1.0
  Mo  Mo1  4  0.25000000  0.09481800  0.53340400  1.0
  Mo  Mo2  4  0.25000000  0.12049400  0.31085000  1.0
  Mo  Mo3  4  0.25000000  0.19403200  0.77355000  1.0
  Mo  Mo4  4  0.25000000  0.29717100  0.91597800  1.0
  Mo  Mo5  4  0.25000000  0.29803400  0.61350600  1.0
  Mo  Mo6  4  0.25000000  0.38480300  0.14751500  1.0
  Mo  Mo7  4  0.25000000  0.40099400  0.47274800  1.0
  P  P8  4  0.25000000  0.01647800  0.72524700  1.0
  P  P9  4  0.25000000  0.04139900  0.41920500  1.0
  P  P10  4  0.25000000  0.19957400  0.20509200  1.0
  P  P11  4  0.25000000  0.24560300  0.02769300  1.0
  P  P12  4  0.25000000  0.32137700  0.36338600  1.0
  P  P13  4  0.25000000  0.48169800  0.58103400  1.0
