# generated using pymatgen
data_Mo2RuSe4
_symmetry_space_group_name_H-M   P-1
_cell_length_a   6.72899000
_cell_length_b   9.30826860
_cell_length_c   9.81934216
_cell_angle_alpha   90.04866764
_cell_angle_beta   90.60143530
_cell_angle_gamma   94.93143619
_symmetry_Int_Tables_number   2
_chemical_formula_structural   Mo2RuSe4
_chemical_formula_sum   'Mo8 Ru4 Se16'
_cell_volume   612.72551490
_cell_formula_units_Z   4
loop_
 _symmetry_equiv_pos_site_id
 _symmetry_equiv_pos_as_xyz
  1  'x, y, z'
  2  '-x, -y, -z'
loop_
 _atom_site_type_symbol
 _atom_site_label
 _atom_site_symmetry_multiplicity
 _atom_site_fract_x
 _atom_site_fract_y
 _atom_site_fract_z
 _atom_site_occupancy
  Mo  Mo0  2  0.23348200  0.98028700  0.43405300  1.0
  Mo  Mo1  2  0.23374200  0.48120900  0.93320800  1.0
  Mo  Mo2  2  0.41707300  0.89237300  0.65436400  1.0
  Mo  Mo3  2  0.45648600  0.67355400  0.08868000  1.0
  Ru  Ru4  2  0.41207500  0.38987600  0.16223400  1.0
  Ru  Ru5  2  0.45146200  0.18121100  0.59155500  1.0
  Se  Se6  2  0.13097800  0.54892400  0.18096400  1.0
  Se  Se7  2  0.13308400  0.05515400  0.68019700  1.0
  Se  Se8  2  0.21569900  0.21762600  0.00706500  1.0
  Se  Se9  2  0.22089900  0.71558200  0.49552900  1.0
  Se  Se10  2  0.26487600  0.25250100  0.38270700  1.0
  Se  Se11  2  0.28005400  0.74842900  0.87158800  1.0
  Se  Se12  2  0.37036700  0.43381400  0.69649700  1.0
  Se  Se13  2  0.37473600  0.92120900  0.20178100  1.0
