# generated using pymatgen
data_Mo6PbS8
_symmetry_space_group_name_H-M   P-1
_cell_length_a   6.56606500
_cell_length_b   6.66054979
_cell_length_c   6.69145192
_cell_angle_alpha   90.64104087
_cell_angle_beta   90.29033962
_cell_angle_gamma   91.06091711
_symmetry_Int_Tables_number   2
_chemical_formula_structural   Mo6PbS8
_chemical_formula_sum   'Mo6 Pb1 S8'
_cell_volume   292.56875024
_cell_formula_units_Z   1
loop_
 _symmetry_equiv_pos_site_id
 _symmetry_equiv_pos_as_xyz
  1  'x, y, z'
  2  '-x, -y, -z'
loop_
 _atom_site_type_symbol
 _atom_site_label
 _atom_site_symmetry_multiplicity
 _atom_site_fract_x
 _atom_site_fract_y
 _atom_site_fract_z
 _atom_site_occupancy
  Mo  Mo0  2  0.23573200  0.43886100  0.41994100  1.0
  Mo  Mo1  2  0.41784100  0.77193100  0.56160200  1.0
  Mo  Mo2  2  0.43737400  0.41929200  0.77257500  1.0
  Pb  Pb3  1  0.00000000  0.00000000  0.00000000  1.0
  S  S4  2  0.12792100  0.62101900  0.73847900  1.0
  S  S5  2  0.24918100  0.75743000  0.24503100  1.0
  S  S6  2  0.26436500  0.12715500  0.62348400  1.0
  S  S7  2  0.37985900  0.26165900  0.12684700  1.0
