# generated using pymatgen
data_Pr(Mo3S4)2
_symmetry_space_group_name_H-M   R-3
_cell_length_a   6.55990667
_cell_length_b   6.55990667
_cell_length_c   6.55990697
_cell_angle_alpha   88.87260502
_cell_angle_beta   88.87260502
_cell_angle_gamma   88.87260780
_symmetry_Int_Tables_number   148
_chemical_formula_structural   Pr(Mo3S4)2
_chemical_formula_sum   'Pr1 Mo6 S8'
_cell_volume   282.12656294
_cell_formula_units_Z   1
loop_
 _symmetry_equiv_pos_site_id
 _symmetry_equiv_pos_as_xyz
  1  'x, y, z'
  2  '-x, -y, -z'
  3  'z, x, y'
  4  '-z, -x, -y'
  5  'y, z, x'
  6  '-y, -z, -x'
loop_
 _atom_site_type_symbol
 _atom_site_label
 _atom_site_symmetry_multiplicity
 _atom_site_fract_x
 _atom_site_fract_y
 _atom_site_fract_z
 _atom_site_occupancy
  Pr  Pr0  1  0.00000000  0.00000000  0.00000000  1.0
  Mo  Mo1  6  0.22660300  0.56309700  0.41918400  1.0
  S  S2  6  0.12639600  0.37601000  0.74864200  1.0
  S  S3  2  0.24403900  0.24403900  0.24403900  1.0
