# generated using pymatgen
data_Mo6PbSe8
_symmetry_space_group_name_H-M   P-1
_cell_length_a   6.54366942
_cell_length_b   7.37137204
_cell_length_c   8.22058487
_cell_angle_alpha   77.36120257
_cell_angle_beta   74.19196311
_cell_angle_gamma   88.56885504
_symmetry_Int_Tables_number   2
_chemical_formula_structural   Mo6PbSe8
_chemical_formula_sum   'Mo6 Pb1 Se8'
_cell_volume   372.03169391
_cell_formula_units_Z   1
loop_
 _symmetry_equiv_pos_site_id
 _symmetry_equiv_pos_as_xyz
  1  'x, y, z'
  2  '-x, -y, -z'
loop_
 _atom_site_type_symbol
 _atom_site_label
 _atom_site_symmetry_multiplicity
 _atom_site_fract_x
 _atom_site_fract_y
 _atom_site_fract_z
 _atom_site_occupancy
  Mo  Mo0  2  0.20531600  0.72585400  0.54112200  1.0
  Mo  Mo1  2  0.29343400  0.58651400  0.81570200  1.0
  Mo  Mo2  2  0.34628500  0.97341600  0.62251300  1.0
  Pb  Pb3  1  0.00000000  0.00000000  0.00000000  1.0
  Se  Se4  2  0.08347000  0.45167900  0.17114200  1.0
  Se  Se5  2  0.13113200  0.23478600  0.55764400  1.0
  Se  Se6  2  0.43124700  0.60151900  0.29841000  1.0
  Se  Se7  2  0.46340900  0.83664500  0.89394200  1.0
