# generated using pymatgen
data_Mo6PbS8
_symmetry_space_group_name_H-M   R-3
_cell_length_a   6.60475961
_cell_length_b   6.60475961
_cell_length_c   6.60475991
_cell_angle_alpha   89.12772135
_cell_angle_beta   89.12772135
_cell_angle_gamma   89.12772302
_symmetry_Int_Tables_number   148
_chemical_formula_structural   Mo6PbS8
_chemical_formula_sum   'Mo6 Pb1 S8'
_cell_volume   288.01928724
_cell_formula_units_Z   1
loop_
 _symmetry_equiv_pos_site_id
 _symmetry_equiv_pos_as_xyz
  1  'x, y, z'
  2  '-x, -y, -z'
  3  'z, x, y'
  4  '-z, -x, -y'
  5  'y, z, x'
  6  '-y, -z, -x'
loop_
 _atom_site_type_symbol
 _atom_site_label
 _atom_site_symmetry_multiplicity
 _atom_site_fract_x
 _atom_site_fract_y
 _atom_site_fract_z
 _atom_site_occupancy
  Mo  Mo0  6  0.22748600  0.56315200  0.41506800  1.0
  Pb  Pb1  1  0.00000000  0.00000000  0.00000000  1.0
  S  S2  6  0.12594900  0.38473500  0.74073900  1.0
  S  S3  2  0.24473900  0.24473900  0.24473900  1.0
