# generated using pymatgen
data_Sn0.875Mo6S8
_symmetry_space_group_name_H-M   R-3
_cell_length_a   6.58066409
_cell_length_b   6.58066409
_cell_length_c   6.58066353
_cell_angle_alpha   89.52661891
_cell_angle_beta   89.52661891
_cell_angle_gamma   89.52662098
_symmetry_Int_Tables_number   148
_chemical_formula_structural   Sn0.875Mo6S8
_chemical_formula_sum   'Sn0.875 Mo6 S8'
_cell_volume   284.94753512
_cell_formula_units_Z   1
loop_
 _symmetry_equiv_pos_site_id
 _symmetry_equiv_pos_as_xyz
  1  'x, y, z'
  2  '-x, -y, -z'
  3  'z, x, y'
  4  '-z, -x, -y'
  5  'y, z, x'
  6  '-y, -z, -x'
loop_
 _atom_site_type_symbol
 _atom_site_label
 _atom_site_symmetry_multiplicity
 _atom_site_fract_x
 _atom_site_fract_y
 _atom_site_fract_z
 _atom_site_occupancy
  Sn  Sn0  1  0.00000000  0.00000000  0.00000000  0.875
  Mo  Mo1  6  0.22577900  0.56149800  0.41490500  1.0
  S  S2  6  0.12700200  0.38039100  0.74054700  1.0
  S  S3  2  0.24154600  0.24154600  0.24154600  1.0
