# generated using pymatgen
data_Sn(Mo3Se4)2
_symmetry_space_group_name_H-M   R-3
_cell_length_a   6.86148826
_cell_length_b   6.86148826
_cell_length_c   6.86148828
_cell_angle_alpha   89.51263082
_cell_angle_beta   89.51263082
_cell_angle_gamma   89.51263416
_symmetry_Int_Tables_number   148
_chemical_formula_structural   Sn(Mo3Se4)2
_chemical_formula_sum   'Sn1 Mo6 Se8'
_cell_volume   323.00415081
_cell_formula_units_Z   1
loop_
 _symmetry_equiv_pos_site_id
 _symmetry_equiv_pos_as_xyz
  1  'x, y, z'
  2  '-x, -y, -z'
  3  'z, x, y'
  4  '-z, -x, -y'
  5  'y, z, x'
  6  '-y, -z, -x'
loop_
 _atom_site_type_symbol
 _atom_site_label
 _atom_site_symmetry_multiplicity
 _atom_site_fract_x
 _atom_site_fract_y
 _atom_site_fract_z
 _atom_site_occupancy
  Sn  Sn0  1  0.00000000  0.00000000  0.00000000  1.0
  Mo  Mo1  6  0.23816800  0.55912700  0.42206700  1.0
  Se  Se2  6  0.12293900  0.37759600  0.74728600  1.0
  Se  Se3  2  0.24007500  0.24007500  0.24007500  1.0
