# generated using pymatgen
data_Mo3Se4
_symmetry_space_group_name_H-M   P-1
_cell_length_a   4.72126655
_cell_length_b   7.92632360
_cell_length_c   8.83019752
_cell_angle_alpha   97.41937810
_cell_angle_beta   97.55255135
_cell_angle_gamma   99.50894025
_symmetry_Int_Tables_number   2
_chemical_formula_structural   Mo3Se4
_chemical_formula_sum   'Mo6 Se8'
_cell_volume   319.21009377
_cell_formula_units_Z   2
loop_
 _symmetry_equiv_pos_site_id
 _symmetry_equiv_pos_as_xyz
  1  'x, y, z'
  2  '-x, -y, -z'
loop_
 _atom_site_type_symbol
 _atom_site_label
 _atom_site_symmetry_multiplicity
 _atom_site_fract_x
 _atom_site_fract_y
 _atom_site_fract_z
 _atom_site_occupancy
  Mo  Mo0  2  0.10889700  0.97688200  0.23408200  1.0
  Mo  Mo1  2  0.36066100  0.35201500  0.46841900  1.0
  Mo  Mo2  2  0.39725700  0.10794300  0.94049600  1.0
  Se  Se3  2  0.13731900  0.67768800  0.48658900  1.0
  Se  Se4  2  0.16001700  0.68878900  0.11564300  1.0
  Se  Se5  2  0.30043600  0.07571700  0.62048500  1.0
  Se  Se6  2  0.33079300  0.26663900  0.18891600  1.0
