# generated using pymatgen
data_Y(Mo3Se4)2
_symmetry_space_group_name_H-M   R-3
_cell_length_a   6.78437199
_cell_length_b   6.78437199
_cell_length_c   6.78437188
_cell_angle_alpha   89.23844779
_cell_angle_beta   89.23844779
_cell_angle_gamma   89.23844738
_symmetry_Int_Tables_number   148
_chemical_formula_structural   Y(Mo3Se4)2
_chemical_formula_sum   'Y1 Mo6 Se8'
_cell_volume   312.18703203
_cell_formula_units_Z   1
loop_
 _symmetry_equiv_pos_site_id
 _symmetry_equiv_pos_as_xyz
  1  'x, y, z'
  2  '-x, -y, -z'
  3  'z, x, y'
  4  '-z, -x, -y'
  5  'y, z, x'
  6  '-y, -z, -x'
loop_
 _atom_site_type_symbol
 _atom_site_label
 _atom_site_symmetry_multiplicity
 _atom_site_fract_x
 _atom_site_fract_y
 _atom_site_fract_z
 _atom_site_occupancy
  Y  Y0  1  0.00000000  0.00000000  0.00000000  1.0
  Mo  Mo1  6  0.23403800  0.55910100  0.42268600  1.0
  Se  Se2  6  0.12237900  0.37181200  0.75559800  1.0
  Se  Se3  2  0.23690800  0.23690800  0.23690800  1.0
