# generated using pymatgen
data_Mo3S4
_symmetry_space_group_name_H-M   P-1
_cell_length_a   3.85441067
_cell_length_b   8.97683291
_cell_length_c   11.99127813
_cell_angle_alpha   86.13774196
_cell_angle_beta   84.28574880
_cell_angle_gamma   89.73490707
_symmetry_Int_Tables_number   2
_chemical_formula_structural   Mo3S4
_chemical_formula_sum   'Mo6 S8'
_cell_volume   411.90278284
_cell_formula_units_Z   2
loop_
 _symmetry_equiv_pos_site_id
 _symmetry_equiv_pos_as_xyz
  1  'x, y, z'
  2  '-x, -y, -z'
loop_
 _atom_site_type_symbol
 _atom_site_label
 _atom_site_symmetry_multiplicity
 _atom_site_fract_x
 _atom_site_fract_y
 _atom_site_fract_z
 _atom_site_occupancy
  Mo  Mo0  2  0.01312300  0.62417900  0.96827000  1.0
  Mo  Mo1  2  0.17736300  0.19717400  0.68530400  1.0
  Mo  Mo2  2  0.25220400  0.88118000  0.42876100  1.0
  S  S3  2  0.06862800  0.26546800  0.86646900  1.0
  S  S4  2  0.21858600  0.94236500  0.63219400  1.0
  S  S5  2  0.35675800  0.32046100  0.51962100  1.0
  S  S6  2  0.45511700  0.32091000  0.13120100  1.0
