# generated using pymatgen
data_Ti6N3.6
_symmetry_space_group_name_H-M   R-3c
_cell_length_a   5.19779826
_cell_length_b   5.19779826
_cell_length_c   5.67939291
_cell_angle_alpha   62.76755013
_cell_angle_beta   62.76755013
_cell_angle_gamma   59.99999660
_symmetry_Int_Tables_number   167
_chemical_formula_structural   Ti6N3.6
_chemical_formula_sum   'Ti6 N3.6'
_cell_volume   112.81817783
_cell_formula_units_Z   1
loop_
 _symmetry_equiv_pos_site_id
 _symmetry_equiv_pos_as_xyz
  1  'x, y, z'
  2  '-x, -y, -z'
  3  '-x-y-z, x, z'
  4  'x+y+z, -x, -z'
  5  'y, -x-y-z, z'
  6  '-y, x+y+z, -z'
  7  '-x+1/2, x+y+z+1/2, -z+1/2'
  8  'x+1/2, -x-y-z+1/2, z+1/2'
  9  'x+y+z+1/2, -y+1/2, -z+1/2'
  10  '-x-y-z+1/2, y+1/2, z+1/2'
  11  '-y+1/2, -x+1/2, -z+1/2'
  12  'y+1/2, x+1/2, z+1/2'
loop_
 _atom_site_type_symbol
 _atom_site_label
 _atom_site_symmetry_multiplicity
 _atom_site_fract_x
 _atom_site_fract_y
 _atom_site_fract_z
 _atom_site_occupancy
  Ti  Ti0  6  0.07305000  0.42695000  0.75000000  1.0
  N  N1  4  0.15940500  0.15940500  0.52178500  0.9
