# generated using pymatgen
data_V1N0.82
_symmetry_space_group_name_H-M   P-6m2
_cell_length_a   2.65088400
_cell_length_b   2.74411400
_cell_length_c   2.74411362
_cell_angle_alpha   120.00000454
_cell_angle_beta   90.00000000
_cell_angle_gamma   90.00000000
_symmetry_Int_Tables_number   187
_chemical_formula_structural   V1N0.82
_chemical_formula_sum   'V1 N0.82'
_cell_volume   17.28723654
_cell_formula_units_Z   1
loop_
 _symmetry_equiv_pos_site_id
 _symmetry_equiv_pos_as_xyz
  1  'x, y, z'
  2  '-x, -z, y-z'
  3  'x, -y+z, -y'
  4  '-x, y, z'
  5  'x, -z, y-z'
  6  '-x, -y+z, -y'
  7  '-x, -y+z, z'
  8  'x, y, y-z'
  9  '-x, -z, -y'
  10  'x, -y+z, z'
  11  '-x, y, y-z'
  12  'x, -z, -y'
loop_
 _atom_site_type_symbol
 _atom_site_label
 _atom_site_symmetry_multiplicity
 _atom_site_fract_x
 _atom_site_fract_y
 _atom_site_fract_z
 _atom_site_occupancy
  V  V0  1  0.00000000  0.00000000  0.00000000  1.0
  N  N1  1  0.50000000  0.33333333  0.66666667  0.8200000000000001
