# generated using pymatgen
data_W2N1.94
_symmetry_space_group_name_H-M   Pmn2_1
_cell_length_a   2.86745000
_cell_length_b   3.45959100
_cell_length_c   4.16358000
_cell_angle_alpha   90.00000000
_cell_angle_beta   90.00000000
_cell_angle_gamma   90.00000000
_symmetry_Int_Tables_number   31
_chemical_formula_structural   W2N1.94
_chemical_formula_sum   'W2 N1.94'
_cell_volume   41.30356386
_cell_formula_units_Z   1
loop_
 _symmetry_equiv_pos_site_id
 _symmetry_equiv_pos_as_xyz
  1  'x, y, z'
  2  'x+1/2, -y, -z+1/2'
  3  'x, y, -z'
  4  'x+1/2, -y, z+1/2'
loop_
 _atom_site_type_symbol
 _atom_site_label
 _atom_site_symmetry_multiplicity
 _atom_site_fract_x
 _atom_site_fract_y
 _atom_site_fract_z
 _atom_site_occupancy
  W  W0  2  0.11559000  0.17452900  0.00000000  1.0
  N  N1  2  0.14772800  0.33370800  0.50000000  0.97
