# generated using pymatgen
data_Nb2N1.996O0.004
_symmetry_space_group_name_H-M   P6_3mc
_cell_length_a   3.20057800
_cell_length_b   3.20057726
_cell_length_c   6.06570400
_cell_angle_alpha   90.00000000
_cell_angle_beta   90.00000000
_cell_angle_gamma   120.00000765
_symmetry_Int_Tables_number   186
_chemical_formula_structural   Nb2N1.996O0.004
_chemical_formula_sum   'Nb2 N1.996 O0.004'
_cell_volume   53.81068772
_cell_formula_units_Z   1
loop_
 _symmetry_equiv_pos_site_id
 _symmetry_equiv_pos_as_xyz
  1  'x, y, z'
  2  'x-y, x, z+1/2'
  3  '-y, x-y, z'
  4  '-x, -y, z+1/2'
  5  '-x+y, -x, z'
  6  'y, -x+y, z+1/2'
  7  'y, x, z+1/2'
  8  'x, x-y, z'
  9  'x-y, -y, z+1/2'
  10  '-y, -x, z'
  11  '-x, -x+y, z+1/2'
  12  '-x+y, y, z'
loop_
 _atom_site_type_symbol
 _atom_site_label
 _atom_site_symmetry_multiplicity
 _atom_site_fract_x
 _atom_site_fract_y
 _atom_site_fract_z
 _atom_site_occupancy
  Nb  Nb0  2  0.33333333  0.66666667  0.01360100  1.0
  N  N1  2  0.33333333  0.66666667  0.34239900  0.998
  O  O2  2  0.33333333  0.66666667  0.34239900  0.002
