# generated using pymatgen
data_V2N1.98
_symmetry_space_group_name_H-M   P2_1/m
_cell_length_a   2.88520500
_cell_length_b   2.93903600
_cell_length_c   4.13732511
_cell_angle_alpha   91.49382775
_cell_angle_beta   90.00000000
_cell_angle_gamma   90.00000000
_symmetry_Int_Tables_number   11
_chemical_formula_structural   V2N1.98
_chemical_formula_sum   'V2 N1.98'
_cell_volume   35.07144066
_cell_formula_units_Z   1
loop_
 _symmetry_equiv_pos_site_id
 _symmetry_equiv_pos_as_xyz
  1  'x, y, z'
  2  '-x, -y, -z'
  3  'x+1/2, -y, -z'
  4  '-x+1/2, y, z'
loop_
 _atom_site_type_symbol
 _atom_site_label
 _atom_site_symmetry_multiplicity
 _atom_site_fract_x
 _atom_site_fract_y
 _atom_site_fract_z
 _atom_site_occupancy
  V  V0  2  0.25000000  0.70577300  0.22793800  1.0
  N  N1  2  0.25000000  0.77819900  0.73618800  0.99
