# generated using pymatgen
data_SN
_symmetry_space_group_name_H-M   P-1
_cell_length_a   3.79623100
_cell_length_b   4.43500611
_cell_length_c   4.61982007
_cell_angle_alpha   99.99675679
_cell_angle_beta   93.16644614
_cell_angle_gamma   91.08085351
_symmetry_Int_Tables_number   2
_chemical_formula_structural   SN
_chemical_formula_sum   'S2 N2'
_cell_volume   76.45084318
_cell_formula_units_Z   2
loop_
 _symmetry_equiv_pos_site_id
 _symmetry_equiv_pos_as_xyz
  1  'x, y, z'
  2  '-x, -y, -z'
loop_
 _atom_site_type_symbol
 _atom_site_label
 _atom_site_symmetry_multiplicity
 _atom_site_fract_x
 _atom_site_fract_y
 _atom_site_fract_z
 _atom_site_occupancy
  S  S0  2  0.36786800  0.81328200  0.31033400  1.0
  N  N1  2  0.46871700  0.18581600  0.35177000  1.0
