# generated using pymatgen
data_SN
_symmetry_space_group_name_H-M   P2_1/c
_cell_length_a   3.15333500
_cell_length_b   5.03175700
_cell_length_c   8.98896611
_cell_angle_alpha   90.00000000
_cell_angle_beta   91.61396672
_cell_angle_gamma   90.00000000
_symmetry_Int_Tables_number   14
_chemical_formula_structural   SN
_chemical_formula_sum   'S4 N4'
_cell_volume   142.56968361
_cell_formula_units_Z   4
loop_
 _symmetry_equiv_pos_site_id
 _symmetry_equiv_pos_as_xyz
  1  'x, y, z'
  2  '-x, -y, -z'
  3  '-x, y+1/2, -z+1/2'
  4  'x, -y+1/2, z+1/2'
loop_
 _atom_site_type_symbol
 _atom_site_label
 _atom_site_symmetry_multiplicity
 _atom_site_fract_x
 _atom_site_fract_y
 _atom_site_fract_z
 _atom_site_occupancy
  S  S0  4  0.28220000  0.19727700  0.63214900  1.0
  N  N1  4  0.27336700  0.59720900  0.15366600  1.0
