# generated using pymatgen
data_SN
_symmetry_space_group_name_H-M   Pbcn
_cell_length_a   7.69121100
_cell_length_b   9.22858400
_cell_length_c   9.51327100
_cell_angle_alpha   90.00000000
_cell_angle_beta   90.00000000
_cell_angle_gamma   90.00000000
_symmetry_Int_Tables_number   60
_chemical_formula_structural   SN
_chemical_formula_sum   'S16 N16'
_cell_volume   675.24233650
_cell_formula_units_Z   16
loop_
 _symmetry_equiv_pos_site_id
 _symmetry_equiv_pos_as_xyz
  1  'x, y, z'
  2  '-x, -y, -z'
  3  'x+1/2, -y+1/2, -z+1/2'
  4  '-x+1/2, y+1/2, z+1/2'
  5  '-x, -y+1/2, z+1/2'
  6  'x, y+1/2, -z+1/2'
  7  '-x+1/2, y, -z'
  8  'x+1/2, -y, z'
loop_
 _atom_site_type_symbol
 _atom_site_label
 _atom_site_symmetry_multiplicity
 _atom_site_fract_x
 _atom_site_fract_y
 _atom_site_fract_z
 _atom_site_occupancy
  S  S0  8  0.07462500  0.28902400  0.02332600  1.0
  S  S1  8  0.21563400  0.08276300  0.85892000  1.0
  N  N2  8  0.11426500  0.18601500  0.15906700  1.0
  N  N3  4  0.25000000  0.38505400  0.00000000  1.0
  N  N4  4  0.25000000  0.48671400  0.50000000  1.0
