# generated using pymatgen
data_SN
_symmetry_space_group_name_H-M   Pnma
_cell_length_a   7.17238000
_cell_length_b   8.09574900
_cell_length_c   13.22785700
_cell_angle_alpha   90.00000000
_cell_angle_beta   90.00000000
_cell_angle_gamma   90.00000000
_symmetry_Int_Tables_number   62
_chemical_formula_structural   SN
_chemical_formula_sum   'S16 N16'
_cell_volume   768.08594307
_cell_formula_units_Z   16
loop_
 _symmetry_equiv_pos_site_id
 _symmetry_equiv_pos_as_xyz
  1  'x, y, z'
  2  '-x, -y, -z'
  3  'x+1/2, -y+1/2, -z'
  4  '-x+1/2, y+1/2, z'
  5  '-x+1/2, y+1/2, -z+1/2'
  6  'x+1/2, -y+1/2, z+1/2'
  7  '-x, -y, z+1/2'
  8  'x, y, -z+1/2'
loop_
 _atom_site_type_symbol
 _atom_site_label
 _atom_site_symmetry_multiplicity
 _atom_site_fract_x
 _atom_site_fract_y
 _atom_site_fract_z
 _atom_site_occupancy
  S  S0  8  0.18975500  0.41291100  0.63441100  1.0
  S  S1  8  0.22458700  0.68324200  0.13422500  1.0
  N  N2  8  0.01759400  0.63475100  0.10195500  1.0
  N  N3  4  0.21486400  0.19285300  0.25000000  1.0
  N  N4  4  0.24251200  0.44612000  0.75000000  1.0
