# generated using pymatgen
data_SN
_symmetry_space_group_name_H-M   P2_1/c
_cell_length_a   7.70690300
_cell_length_b   9.18379800
_cell_length_c   9.40389989
_cell_angle_alpha   92.44427027
_cell_angle_beta   90.00000000
_cell_angle_gamma   90.00000000
_symmetry_Int_Tables_number   14
_chemical_formula_structural   SN
_chemical_formula_sum   'S16 N16'
_cell_volume   664.98967383
_cell_formula_units_Z   16
loop_
 _symmetry_equiv_pos_site_id
 _symmetry_equiv_pos_as_xyz
  1  'x, y, z'
  2  '-x, -y, -z'
  3  'x+1/2, -y+1/2, -z+1/2'
  4  '-x+1/2, y+1/2, z+1/2'
loop_
 _atom_site_type_symbol
 _atom_site_label
 _atom_site_symmetry_multiplicity
 _atom_site_fract_x
 _atom_site_fract_y
 _atom_site_fract_z
 _atom_site_occupancy
  S  S0  4  0.06368800  0.22547500  0.53667000  1.0
  S  S1  4  0.08727700  0.70366000  0.98853400  1.0
  S  S2  4  0.21211800  0.93449400  0.14146600  1.0
  S  S3  4  0.21574800  0.40586100  0.35670400  1.0
  N  N4  4  0.11149600  0.34164800  0.66707100  1.0
  N  N5  4  0.12127300  0.79326500  0.84492400  1.0
  N  N6  4  0.23169000  0.11868900  0.51883200  1.0
  N  N7  4  0.24163800  0.01623100  0.99280700  1.0
