# generated using pymatgen
data_SN
_symmetry_space_group_name_H-M   P4/nmm
_cell_length_a   3.63393800
_cell_length_b   3.64231700
_cell_length_c   3.64231700
_cell_angle_alpha   90.00000000
_cell_angle_beta   90.00000000
_cell_angle_gamma   90.00000000
_symmetry_Int_Tables_number   129
_chemical_formula_structural   SN
_chemical_formula_sum   'S2 N2'
_cell_volume   48.20954083
_cell_formula_units_Z   2
loop_
 _symmetry_equiv_pos_site_id
 _symmetry_equiv_pos_as_xyz
  1  'x, y, z'
  2  'x, -z+1/2, y+1/2'
  3  'x, -y, -z'
  4  'x, z+1/2, -y+1/2'
  5  '-x, y+1/2, -z+1/2'
  6  '-x, -z, -y'
  7  '-x, -y+1/2, z+1/2'
  8  '-x, z, y'
  9  '-x, -y+1/2, -z+1/2'
  10  '-x, z, -y'
  11  '-x, y+1/2, z+1/2'
  12  '-x, -z, y'
  13  'x, -y, z'
  14  'x, z+1/2, y+1/2'
  15  'x, y, -z'
  16  'x, -z+1/2, -y+1/2'
loop_
 _atom_site_type_symbol
 _atom_site_label
 _atom_site_symmetry_multiplicity
 _atom_site_fract_x
 _atom_site_fract_y
 _atom_site_fract_z
 _atom_site_occupancy
  S  S0  2  0.17848500  0.50000000  0.00000000  1.0
  N  N1  2  0.00000000  0.00000000  0.00000000  1.0
