# generated using pymatgen
data_SN
_symmetry_space_group_name_H-M   P2_1/c
_cell_length_a   4.53351100
_cell_length_b   4.75711600
_cell_length_c   7.96497786
_cell_angle_alpha   101.52888631
_cell_angle_beta   90.00000000
_cell_angle_gamma   90.00000000
_symmetry_Int_Tables_number   14
_chemical_formula_structural   SN
_chemical_formula_sum   'S4 N4'
_cell_volume   168.31045375
_cell_formula_units_Z   4
loop_
 _symmetry_equiv_pos_site_id
 _symmetry_equiv_pos_as_xyz
  1  'x, y, z'
  2  '-x, -y, -z'
  3  'x+1/2, -y+1/2, -z+1/2'
  4  '-x+1/2, y+1/2, z+1/2'
loop_
 _atom_site_type_symbol
 _atom_site_label
 _atom_site_symmetry_multiplicity
 _atom_site_fract_x
 _atom_site_fract_y
 _atom_site_fract_z
 _atom_site_occupancy
  S  S0  4  0.21575300  0.83131700  0.66480100  1.0
  N  N1  4  0.06505400  0.68993300  0.81277500  1.0
