# generated using pymatgen
data_Ta2N
_symmetry_space_group_name_H-M   P-31m
_cell_length_a   4.96606500
_cell_length_b   5.31849800
_cell_length_c   5.31849854
_cell_angle_alpha   60.00000335
_cell_angle_beta   90.00000000
_cell_angle_gamma   90.00000000
_symmetry_Int_Tables_number   162
_chemical_formula_structural   Ta2N
_chemical_formula_sum   'Ta6 N3'
_cell_volume   121.65251467
_cell_formula_units_Z   3
loop_
 _symmetry_equiv_pos_site_id
 _symmetry_equiv_pos_as_xyz
  1  'x, y, z'
  2  '-x, -y, -z'
  3  'x, -y-z, y'
  4  '-x, y+z, -y'
  5  'x, z, -y-z'
  6  '-x, -z, y+z'
  7  '-x, y, -y-z'
  8  'x, -y, y+z'
  9  '-x, -y-z, z'
  10  'x, y+z, -z'
  11  '-x, z, y'
  12  'x, -z, -y'
loop_
 _atom_site_type_symbol
 _atom_site_label
 _atom_site_symmetry_multiplicity
 _atom_site_fract_x
 _atom_site_fract_y
 _atom_site_fract_z
 _atom_site_occupancy
  Ta  Ta0  6  0.24659200  0.00000000  0.66666667  1.0
  N  N1  2  0.50000000  0.33333333  0.33333333  1.0
  N  N2  1  0.00000000  0.00000000  0.00000000  1.0
