# generated using pymatgen
data_W2N
_symmetry_space_group_name_H-M   P-3m1
_cell_length_a   2.83520600
_cell_length_b   2.83520564
_cell_length_c   17.65665700
_cell_angle_alpha   90.00000000
_cell_angle_beta   90.00000000
_cell_angle_gamma   120.00000426
_symmetry_Int_Tables_number   164
_chemical_formula_structural   W2N
_chemical_formula_sum   'W6 N3'
_cell_volume   122.91595986
_cell_formula_units_Z   3
loop_
 _symmetry_equiv_pos_site_id
 _symmetry_equiv_pos_as_xyz
  1  'x, y, z'
  2  '-x, -y, -z'
  3  '-y, x-y, z'
  4  'y, -x+y, -z'
  5  '-x+y, -x, z'
  6  'x-y, x, -z'
  7  'y, x, -z'
  8  '-y, -x, z'
  9  'x-y, -y, -z'
  10  '-x+y, y, z'
  11  '-x, -x+y, -z'
  12  'x, x-y, z'
loop_
 _atom_site_type_symbol
 _atom_site_label
 _atom_site_symmetry_multiplicity
 _atom_site_fract_x
 _atom_site_fract_y
 _atom_site_fract_z
 _atom_site_occupancy
  W  W0  2  0.00000000  0.00000000  0.07568700  1.0
  W  W1  2  0.33333333  0.66666667  0.26202700  1.0
  W  W2  2  0.33333333  0.66666667  0.41720000  1.0
  N  N3  2  0.33333333  0.66666667  0.15033300  1.0
  N  N4  1  0.00000000  0.00000000  0.50000000  1.0
