# generated using pymatgen
data_Nb4N5
_symmetry_space_group_name_H-M   I4/m
_cell_length_a   4.32242800
_cell_length_b   5.35971887
_cell_length_c   5.35971887
_cell_angle_alpha   80.64235419
_cell_angle_beta   66.21957262
_cell_angle_gamma   66.21957262
_symmetry_Int_Tables_number   87
_chemical_formula_structural   Nb4N5
_chemical_formula_sum   'Nb4 N5'
_cell_volume   103.97920592
_cell_formula_units_Z   1
loop_
 _symmetry_equiv_pos_site_id
 _symmetry_equiv_pos_as_xyz
  1  'x, y, z'
  2  '-x, -y, -z'
  3  'x+y, z, -y'
  4  '-x-y, -z, y'
  5  'x+y+z, -y, -z'
  6  '-x-y-z, y, z'
  7  'x+z, -z, y'
  8  '-x-z, z, -y'
loop_
 _atom_site_type_symbol
 _atom_site_label
 _atom_site_symmetry_multiplicity
 _atom_site_fract_x
 _atom_site_fract_y
 _atom_site_fract_z
 _atom_site_occupancy
  Nb  Nb0  4  0.21569800  0.38920600  0.17939700  1.0
  N  N1  4  0.09228300  0.21382800  0.60160500  1.0
  N  N2  1  0.50000000  0.00000000  0.00000000  1.0
