# generated using pymatgen
data_Na1.7W17O51
_symmetry_space_group_name_H-M   P-1
_cell_length_a   8.60297303
_cell_length_b   8.60306522
_cell_length_c   14.39683972
_cell_angle_alpha   96.86114520
_cell_angle_beta   90.00357206
_cell_angle_gamma   113.58643980
_symmetry_Int_Tables_number   2
_chemical_formula_structural   Na1.7W17O51
_chemical_formula_sum   'Na1.7 W17 O51'
_cell_volume   968.18465566
_cell_formula_units_Z   1
loop_
 _symmetry_equiv_pos_site_id
 _symmetry_equiv_pos_as_xyz
  1  'x, y, z'
  2  '-x+5/17, -y+4/17, -z+10/17'
loop_
 _atom_site_type_symbol
 _atom_site_label
 _atom_site_symmetry_multiplicity
 _atom_site_fract_x
 _atom_site_fract_y
 _atom_site_fract_z
 _atom_site_occupancy
  Na  Na0  2  0.52935900  0.82349500  0.05874300  0.85
  W  W1  2  0.03073800  0.82530800  0.55992400  1.0
  W  W2  2  0.08901000  0.46955000  0.67765300  1.0
  W  W3  2  0.32252000  0.06064900  0.14720100  1.0
  W  W4  2  0.38131900  0.70498900  0.26505200  1.0
  W  W5  2  0.43947400  0.35266600  0.38147100  1.0
  W  W6  2  0.49826600  0.99732000  0.49942800  1.0
  W  W7  2  0.55708000  0.64794900  0.61816000  1.0
  W  W8  2  0.61564700  0.29288500  0.73628600  1.0
  W  W9  1  0.14705900  0.11764900  0.79411300  1.0
  O  O10  2  0.00018500  0.00025300  0.49991200  1.0
  O  O11  2  0.02715100  0.32444700  0.55850500  1.0
  O  O12  2  0.02937800  0.32337000  0.05885300  1.0
  O  O13  2  0.05623000  0.64509100  0.61671100  1.0
  O  O14  2  0.08826300  0.97063100  0.17659900  1.0
  O  O15  2  0.08841300  0.97087500  0.67647700  1.0
  O  O16  2  0.11780700  0.29415000  0.73534100  1.0
  O  O17  2  0.32363200  0.55898000  0.64715300  1.0
  O  O18  2  0.32548900  0.56119500  0.14640400  1.0
  O  O19  2  0.35452600  0.88172300  0.20464700  1.0
  O  O20  2  0.38223700  0.20583400  0.76482000  1.0
  O  O21  2  0.38228000  0.20602200  0.26474400  1.0
  O  O22  2  0.41164400  0.52941400  0.32365700  1.0
  O  O23  2  0.44116600  0.85286200  0.38253200  1.0
  O  O24  2  0.44176200  0.85249800  0.88399700  1.0
  O  O25  2  0.47329500  0.17878200  0.44207100  1.0
  O  O26  2  0.50009400  0.50279800  0.00056600  1.0
  O  O27  2  0.50251700  0.49935600  0.50031500  1.0
  O  O28  2  0.52933800  0.82361800  0.55886700  1.0
  O  O29  2  0.55845500  0.14394300  0.11718800  1.0
  O  O30  2  0.56084800  0.14961300  0.61694000  1.0
  O  O31  2  0.58990400  0.47009800  0.67512100  1.0
  O  O32  2  0.61689800  0.79450700  0.23376500  1.0
  O  O33  2  0.61767000  0.79431100  0.73527100  1.0
  O  O34  1  0.14705800  0.61765400  0.29412100  1.0
  O  O35  1  0.14706000  0.61764900  0.79411800  1.0
  O  O36  1  0.64705700  0.11764700  0.79411800  1.0
