# generated using pymatgen
data_Na0.56W2O6
_symmetry_space_group_name_H-M   Imm2
_cell_length_a   5.52816000
_cell_length_b   5.52860399
_cell_length_c   5.52860399
_cell_angle_alpha   60.00651009
_cell_angle_beta   60.00265655
_cell_angle_gamma   60.00265655
_symmetry_Int_Tables_number   44
_chemical_formula_structural   Na0.56W2O6
_chemical_formula_sum   'Na0.56 W2 O6'
_cell_volume   119.49104903
_cell_formula_units_Z   1
loop_
 _symmetry_equiv_pos_site_id
 _symmetry_equiv_pos_as_xyz
  1  'x, y, z'
  2  'x+y+z, -y, -z'
  3  'x, z, y'
  4  'x+y+z, -z, -y'
loop_
 _atom_site_type_symbol
 _atom_site_label
 _atom_site_symmetry_multiplicity
 _atom_site_fract_x
 _atom_site_fract_y
 _atom_site_fract_z
 _atom_site_occupancy
  Na  Na0  1  0.00003800  0.00000000  0.00000000  0.56
  W  W1  2  0.24229200  0.25235500  0.25235400  1.0
  O  O2  4  0.49466300  0.00021600  0.49900700  1.0
  O  O3  1  0.50203900  0.00000000  0.00000000  1.0
  O  O4  1  0.99056700  0.50000000  0.50000000  1.0
