# generated using pymatgen
data_Na0.9W9O27
_symmetry_space_group_name_H-M   R-3
_cell_length_a   8.65712706
_cell_length_b   8.65712706
_cell_length_c   8.65712659
_cell_angle_alpha   66.42269641
_cell_angle_beta   66.42269641
_cell_angle_gamma   66.42269526
_symmetry_Int_Tables_number   148
_chemical_formula_structural   Na0.9W9O27
_chemical_formula_sum   'Na0.9 W9 O27'
_cell_volume   522.29468277
_cell_formula_units_Z   1
loop_
 _symmetry_equiv_pos_site_id
 _symmetry_equiv_pos_as_xyz
  1  'x, y, z'
  2  '-x, -y, -z'
  3  'z, x, y'
  4  '-z, -x, -y'
  5  'y, z, x'
  6  '-y, -z, -x'
loop_
 _atom_site_type_symbol
 _atom_site_label
 _atom_site_symmetry_multiplicity
 _atom_site_fract_x
 _atom_site_fract_y
 _atom_site_fract_z
 _atom_site_occupancy
  Na  Na0  1  0.00000000  0.00000000  0.00000000  0.9
  W  W1  6  0.05686600  0.72043100  0.39048600  1.0
  W  W2  2  0.16766600  0.16766600  0.16766600  1.0
  W  W3  1  0.50000000  0.50000000  0.50000000  1.0
  O  O4  6  0.05501300  0.72486400  0.88991800  1.0
  O  O5  6  0.05555800  0.22238200  0.38888800  1.0
  O  O6  6  0.16502400  0.66980600  0.16504700  1.0
  O  O7  6  0.27793700  0.61094000  0.44462700  1.0
  O  O8  3  0.00000000  0.50000000  0.50000000  1.0
