# generated using pymatgen
data_Na1.32V8O20
_symmetry_space_group_name_H-M   Cmcm
_cell_length_a   3.67991600
_cell_length_b   6.15819008
_cell_length_c   18.76153800
_cell_angle_alpha   90.00000000
_cell_angle_beta   90.00000000
_cell_angle_gamma   107.38447802
_symmetry_Int_Tables_number   63
_chemical_formula_structural   Na1.32V8O20
_chemical_formula_sum   'Na1.32 V8 O20'
_cell_volume   405.74581830
_cell_formula_units_Z   1
loop_
 _symmetry_equiv_pos_site_id
 _symmetry_equiv_pos_as_xyz
  1  'x, y, z'
  2  '-x, -y, -z'
  3  '-x, -y, z+1/2'
  4  'x, y, -z+1/2'
  5  'x-y, -y, -z'
  6  '-x+y, y, z'
  7  '-x+y, y, -z+1/2'
  8  'x-y, -y, z+1/2'
loop_
 _atom_site_type_symbol
 _atom_site_label
 _atom_site_symmetry_multiplicity
 _atom_site_fract_x
 _atom_site_fract_y
 _atom_site_fract_z
 _atom_site_occupancy
  Na  Na0  2  0.07990800  0.15981600  0.75000000  0.6599999999999999
  V  V1  4  0.27052200  0.54104400  0.08300400  1.0
  V  V2  4  0.43658500  0.87317000  0.58149900  1.0
  O  O3  4  0.10118700  0.20237400  0.06768800  1.0
  O  O4  4  0.26029500  0.52059000  0.56058200  1.0
  O  O5  4  0.29569000  0.59138000  0.16881200  1.0
  O  O6  4  0.42005800  0.84011600  0.04796500  1.0
  O  O7  4  0.45899600  0.91799200  0.66788500  1.0
