# generated using pymatgen
data_Na0.8W8O24
_symmetry_space_group_name_H-M   I-4
_cell_length_a   7.57597700
_cell_length_b   7.57663000
_cell_length_c   9.63836920
_cell_angle_alpha   113.14470047
_cell_angle_beta   113.14258976
_cell_angle_gamma   89.99863125
_symmetry_Int_Tables_number   82
_chemical_formula_structural   Na0.8W8O24
_chemical_formula_sum   'Na0.8 W8 O24'
_cell_volume   459.91022679
_cell_formula_units_Z   1
loop_
 _symmetry_equiv_pos_site_id
 _symmetry_equiv_pos_as_xyz
  1  'x, y, z'
  2  'y-z+31/864, -x+463/864, -z+31/432'
  3  '-x+z+1/2, -y+z+1/2, z'
  4  '-y+463/864, x-z+31/864, -z+31/432'
loop_
 _atom_site_type_symbol
 _atom_site_label
 _atom_site_symmetry_multiplicity
 _atom_site_fract_x
 _atom_site_fract_y
 _atom_site_fract_z
 _atom_site_occupancy
  Na  Na0  1  0.26794000  0.26794000  0.03588000  0.8
  W  W1  4  0.12163300  0.12182100  0.25547900  1.0
  W  W2  4  0.16390200  0.65643800  0.31992000  1.0
  O  O3  4  0.01996450  0.01958150  0.03351700  1.0
  O  O4  4  0.11687600  0.89021050  0.28477200  1.0
  O  O5  4  0.14336000  0.36624750  0.78876900  1.0
  O  O6  4  0.26323750  0.26491400  0.53098500  1.0
  O  O7  4  0.36798250  0.64154400  0.78642000  1.0
  O  O8  4  0.39198600  0.11899100  0.28572800  1.0
