# generated using pymatgen
data_Na(NbS2)2
_symmetry_space_group_name_H-M   P3m1
_cell_length_a   3.40984200
_cell_length_b   3.40984218
_cell_length_c   14.32019000
_cell_angle_alpha   90.00000000
_cell_angle_beta   90.00000000
_cell_angle_gamma   119.99999827
_symmetry_Int_Tables_number   156
_chemical_formula_structural   Na(NbS2)2
_chemical_formula_sum   'Na1 Nb2 S4'
_cell_volume   144.19425383
_cell_formula_units_Z   1
loop_
 _symmetry_equiv_pos_site_id
 _symmetry_equiv_pos_as_xyz
  1  'x, y, z'
  2  '-y, x-y, z'
  3  '-x+y, -x, z'
  4  '-y, -x, z'
  5  '-x+y, y, z'
  6  'x, x-y, z'
loop_
 _atom_site_type_symbol
 _atom_site_label
 _atom_site_symmetry_multiplicity
 _atom_site_fract_x
 _atom_site_fract_y
 _atom_site_fract_z
 _atom_site_occupancy
  Na  Na0  1  0.66666667  0.33333333  0.99939200  1.0
  Nb  Nb1  1  0.00000000  0.00000000  0.74834100  1.0
  Nb  Nb2  1  0.66666667  0.33333333  0.25177600  1.0
  S  S3  1  0.33333333  0.66666667  0.14133200  1.0
  S  S4  1  0.33333333  0.66666667  0.35811100  1.0
  S  S5  1  0.33333333  0.66666667  0.64204600  1.0
  S  S6  1  0.33333333  0.66666667  0.85880300  1.0
