# generated using pymatgen
data_Na0.99V6O15
_symmetry_space_group_name_H-M   Cm
_cell_length_a   3.65688200
_cell_length_b   8.14830143
_cell_length_c   9.62702587
_cell_angle_alpha   95.19023146
_cell_angle_beta   90.00000000
_cell_angle_gamma   102.96732548
_symmetry_Int_Tables_number   8
_chemical_formula_structural   Na0.99V6O15
_chemical_formula_sum   'Na0.99 V6 O15'
_cell_volume   278.33758099
_cell_formula_units_Z   1
loop_
 _symmetry_equiv_pos_site_id
 _symmetry_equiv_pos_as_xyz
  1  'x, y, z'
  2  '-x+y, y, z'
loop_
 _atom_site_type_symbol
 _atom_site_label
 _atom_site_symmetry_multiplicity
 _atom_site_fract_x
 _atom_site_fract_y
 _atom_site_fract_z
 _atom_site_occupancy
  Na  Na0  1  0.92706100  0.85412200  0.41822500  0.99
  V  V1  1  0.08222300  0.16444600  0.10724500  1.0
  V  V2  1  0.22009900  0.44019800  0.42110500  1.0
  V  V3  1  0.31693200  0.63386400  0.11406700  1.0
  V  V4  1  0.60869100  0.21738200  0.58909000  1.0
  V  V5  1  0.68640500  0.37281000  0.91215400  1.0
  V  V6  1  0.88710400  0.77420800  0.87176700  1.0
  O  O7  1  0.05693200  0.11386400  0.26888200  1.0
  O  O8  1  0.14446900  0.28893800  0.57997000  1.0
  O  O9  1  0.18179600  0.36359200  0.95981300  1.0
  O  O10  1  0.22760800  0.45521600  0.23818600  1.0
  O  O11  1  0.31871800  0.63743600  0.48591500  1.0
  O  O12  1  0.37085200  0.74170400  0.92771300  1.0
  O  O13  1  0.39803100  0.79606200  0.23153100  1.0
  O  O14  1  0.51210200  0.02420400  0.51423600  1.0
  O  O15  1  0.59989600  0.19979200  0.77317900  1.0
  O  O16  1  0.61489200  0.22978400  0.07892700  1.0
  O  O17  1  0.68707100  0.37414200  0.43948200  1.0
  O  O18  1  0.76838900  0.53677800  0.80157000  1.0
  O  O19  1  0.79589800  0.59179600  0.06949900  1.0
  O  O20  1  0.92502300  0.85004600  0.72246800  1.0
  O  O21  1  0.98760900  0.97521800  0.00007400  1.0
