# generated using pymatgen
data_Na1.98V12O30
_symmetry_space_group_name_H-M   P-1
_cell_length_a   7.30390900
_cell_length_b   8.03549031
_cell_length_c   10.27724234
_cell_angle_alpha   70.78090619
_cell_angle_beta   89.99931427
_cell_angle_gamma   76.85933940
_symmetry_Int_Tables_number   2
_chemical_formula_structural   Na1.98V12O30
_chemical_formula_sum   'Na1.98 V12 O30'
_cell_volume   552.80609227
_cell_formula_units_Z   1
loop_
 _symmetry_equiv_pos_site_id
 _symmetry_equiv_pos_as_xyz
  1  'x, y, z'
  2  '-x, -y, -z'
loop_
 _atom_site_type_symbol
 _atom_site_label
 _atom_site_symmetry_multiplicity
 _atom_site_fract_x
 _atom_site_fract_y
 _atom_site_fract_z
 _atom_site_occupancy
  Na  Na0  2  0.24778500  0.00925300  0.60463300  0.99
  V  V1  2  0.08186600  0.67404800  0.89792700  1.0
  V  V2  2  0.10688700  0.57292700  0.59165300  1.0
  V  V3  2  0.19211600  0.23167300  0.88453000  1.0
  V  V4  2  0.30842100  0.76618100  0.11808400  1.0
  V  V5  2  0.39338600  0.42727900  0.40870400  1.0
  V  V6  2  0.41878400  0.32620200  0.10183800  1.0
  O  O7  2  0.03845500  0.87304400  0.77882300  1.0
  O  O8  2  0.05151200  0.79408500  0.53061100  1.0
  O  O9  2  0.06686200  0.73305100  0.07458100  1.0
  O  O10  2  0.11860700  0.52564600  0.77859600  1.0
  O  O11  2  0.12773200  0.48884000  0.42536200  1.0
  O  O12  2  0.15722400  0.36960400  0.05449800  1.0
  O  O13  2  0.19564900  0.21690100  0.72850300  1.0
  O  O14  2  0.24982500  0.00056300  0.99932600  1.0
  O  O15  2  0.30393900  0.78399900  0.27128500  1.0
  O  O16  2  0.34279800  0.62721500  0.94531800  1.0
  O  O17  2  0.37238500  0.51007700  0.57546500  1.0
  O  O18  2  0.38107200  0.47543100  0.22127000  1.0
  O  O19  2  0.43346900  0.26679200  0.92545300  1.0
  O  O20  2  0.44873500  0.20616000  0.46922700  1.0
  O  O21  2  0.47505600  0.12729700  0.22118500  1.0
