# generated using pymatgen
data_Nb4Pd
_symmetry_space_group_name_H-M   Fmmm
_cell_length_a   2.82598049
_cell_length_b   2.82598049
_cell_length_c   11.59663550
_cell_angle_alpha   95.11461726
_cell_angle_beta   95.11461742
_cell_angle_gamma   105.56580162
_symmetry_Int_Tables_number   69
_chemical_formula_structural   Nb4Pd
_chemical_formula_sum   'Nb4 Pd1'
_cell_volume   88.24148147
_cell_formula_units_Z   1
loop_
 _symmetry_equiv_pos_site_id
 _symmetry_equiv_pos_as_xyz
  1  'x, y, z'
  2  '-x, -y, -z'
  3  '-x+z, -y+z, z'
  4  'x-z, y-z, -z'
  5  'y-z, x-z, -z'
  6  '-y+z, -x+z, z'
  7  '-y, -x, -z'
  8  'y, x, z'
loop_
 _atom_site_type_symbol
 _atom_site_label
 _atom_site_symmetry_multiplicity
 _atom_site_fract_x
 _atom_site_fract_y
 _atom_site_fract_z
 _atom_site_occupancy
  Nb  Nb0  2  0.19770000  0.19770000  0.39540000  1.0
  Nb  Nb1  2  0.40451900  0.40451900  0.80903800  1.0
  Pd  Pd2  1  0.00000000  0.00000000  0.00000000  1.0
