# generated using pymatgen
data_Nb0.9Rh1.1
_symmetry_space_group_name_H-M   P4/mmm
_cell_length_a   2.87983700
_cell_length_b   2.87983700
_cell_length_c   3.87726700
_cell_angle_alpha   90.00000000
_cell_angle_beta   90.00000000
_cell_angle_gamma   90.00000000
_symmetry_Int_Tables_number   123
_chemical_formula_structural   Nb0.9Rh1.1
_chemical_formula_sum   'Nb0.9 Rh1.1'
_cell_volume   32.15596322
_cell_formula_units_Z   1
loop_
 _symmetry_equiv_pos_site_id
 _symmetry_equiv_pos_as_xyz
  1  'x, y, z'
  2  '-x, -y, -z'
  3  '-y, x, z'
  4  'y, -x, -z'
  5  '-x, -y, z'
  6  'x, y, -z'
  7  'y, -x, z'
  8  '-y, x, -z'
  9  'x, -y, -z'
  10  '-x, y, z'
  11  '-y, -x, -z'
  12  'y, x, z'
  13  '-x, y, -z'
  14  'x, -y, z'
  15  'y, x, -z'
  16  '-y, -x, z'
loop_
 _atom_site_type_symbol
 _atom_site_label
 _atom_site_symmetry_multiplicity
 _atom_site_fract_x
 _atom_site_fract_y
 _atom_site_fract_z
 _atom_site_occupancy
  Nb  Nb0  1  0.00000000  0.00000000  0.00000000  0.9
  Rh  Rh1  1  0.00000000  0.00000000  0.00000000  0.1
  Rh  Rh2  1  0.50000000  0.50000000  0.50000000  1.0
