# generated using pymatgen
data_Nb2.1Ru0.9
_symmetry_space_group_name_H-M   Fmmm
_cell_length_a   2.85118474
_cell_length_b   2.85118474
_cell_length_c   6.82314741
_cell_angle_alpha   97.98360001
_cell_angle_beta   97.98359997
_cell_angle_gamma   109.58765541
_symmetry_Int_Tables_number   69
_chemical_formula_structural   Nb2.1Ru0.9
_chemical_formula_sum   'Nb2.1 Ru0.9'
_cell_volume   50.71809341
_cell_formula_units_Z   1
loop_
 _symmetry_equiv_pos_site_id
 _symmetry_equiv_pos_as_xyz
  1  'x, y, z'
  2  '-x, -y, -z'
  3  '-x+z, -y+z, z'
  4  'x-z, y-z, -z'
  5  'y-z, x-z, -z'
  6  '-y+z, -x+z, z'
  7  '-y, -x, -z'
  8  'y, x, z'
loop_
 _atom_site_type_symbol
 _atom_site_label
 _atom_site_symmetry_multiplicity
 _atom_site_fract_x
 _atom_site_fract_y
 _atom_site_fract_z
 _atom_site_occupancy
  Nb  Nb0  2  0.33959500  0.33959500  0.67919000  1.0
  Ru  Ru1  1  0.00000000  0.00000000  0.00000000  0.9
  Nb  Nb2  1  0.00000000  0.00000000  0.00000000  0.1
