# generated using pymatgen
data_NbO2
_symmetry_space_group_name_H-M   I4_1/a
_cell_length_a   6.73968600
_cell_length_b   11.63775897
_cell_length_c   11.63775897
_cell_angle_alpha   85.19035056
_cell_angle_beta   73.16831480
_cell_angle_gamma   73.16831481
_symmetry_Int_Tables_number   88
_chemical_formula_structural   NbO2
_chemical_formula_sum   'Nb16 O32'
_cell_volume   836.27096856
_cell_formula_units_Z   16
loop_
 _symmetry_equiv_pos_site_id
 _symmetry_equiv_pos_as_xyz
  1  'x, y, z'
  2  'x+y+1/4, z+1/2, -y+1/2'
  3  'x+y+z, -y, -z'
  4  'x+z+1/4, -z+1/2, y+1/2'
  5  '-x+1/4, -y+1/2, -z+1/2'
  6  '-x-y, -z, y'
  7  '-x-y-z+1/4, y+1/2, z+1/2'
  8  '-x-z, z, -y'
loop_
 _atom_site_type_symbol
 _atom_site_label
 _atom_site_symmetry_multiplicity
 _atom_site_fract_x
 _atom_site_fract_y
 _atom_site_fract_z
 _atom_site_occupancy
  Nb  Nb0  8  0.00695900  0.29215800  0.15200200  1.0
  Nb  Nb1  8  0.04094500  0.63807500  0.10383900  1.0
  O  O2  8  0.02782400  0.67195900  0.71457000  1.0
  O  O3  8  0.05310400  0.42593900  0.86648600  1.0
  O  O4  8  0.05660500  0.28628900  0.47302200  1.0
  O  O5  8  0.07067600  0.45930300  0.14274200  1.0
