# generated using pymatgen
data_NbO2
_symmetry_space_group_name_H-M   I4_1/a
_cell_length_a   6.08928800
_cell_length_b   10.28562122
_cell_length_c   10.28562122
_cell_angle_alpha   84.97319648
_cell_angle_beta   72.78190469
_cell_angle_gamma   72.78190467
_symmetry_Int_Tables_number   88
_chemical_formula_structural   NbO2
_chemical_formula_sum   'Nb16 O32'
_cell_volume   587.76332870
_cell_formula_units_Z   16
loop_
 _symmetry_equiv_pos_site_id
 _symmetry_equiv_pos_as_xyz
  1  'x, y, z'
  2  'x+y+1/4, z+1/2, -y+1/2'
  3  'x+y+z, -y, -z'
  4  'x+z+1/4, -z+1/2, y+1/2'
  5  '-x+1/4, -y+1/2, -z+1/2'
  6  '-x-y, -z, y'
  7  '-x-y-z+1/4, y+1/2, z+1/2'
  8  '-x-z, z, -y'
loop_
 _atom_site_type_symbol
 _atom_site_label
 _atom_site_symmetry_multiplicity
 _atom_site_fract_x
 _atom_site_fract_y
 _atom_site_fract_z
 _atom_site_occupancy
  Nb  Nb0  8  0.02100600  0.75925200  0.50925500  1.0
  Nb  Nb1  8  0.02672600  0.48733100  0.26067400  1.0
  O  O2  8  0.09878900  0.38937300  0.63722600  1.0
  O  O3  8  0.25148400  0.35120100  0.89867900  1.0
  O  O4  8  0.25322800  0.15272500  0.09946700  1.0
  O  O5  8  0.25719300  0.86194700  0.38869900  1.0
