# generated using pymatgen
data_NbO2
_symmetry_space_group_name_H-M   P1
_cell_length_a   11.45089247
_cell_length_b   11.50339765
_cell_length_c   11.91772163
_cell_angle_alpha   91.22701563
_cell_angle_beta   99.89621770
_cell_angle_gamma   90.68211875
_symmetry_Int_Tables_number   1
_chemical_formula_structural   NbO2
_chemical_formula_sum   'Nb34 O68'
_cell_volume   1545.94543632
_cell_formula_units_Z   34
loop_
 _symmetry_equiv_pos_site_id
 _symmetry_equiv_pos_as_xyz
  1  'x, y, z'
loop_
 _atom_site_type_symbol
 _atom_site_label
 _atom_site_symmetry_multiplicity
 _atom_site_fract_x
 _atom_site_fract_y
 _atom_site_fract_z
 _atom_site_occupancy
  Nb  Nb0  1  0.00908287  0.93512767  0.30415937  1.0
  Nb  Nb1  1  0.03606923  0.76936023  0.72475162  1.0
  Nb  Nb2  1  0.07609626  0.53552248  0.61968927  1.0
  Nb  Nb3  1  0.09937849  0.11721576  0.70478998  1.0
  Nb  Nb4  1  0.10472467  0.19564484  0.02281170  1.0
  Nb  Nb5  1  0.18990205  0.63592289  0.98338937  1.0
  Nb  Nb6  1  0.19543600  0.12930126  0.25218149  1.0
  Nb  Nb7  1  0.25027609  0.46715835  0.25898327  1.0
  Nb  Nb8  1  0.25207040  0.38461770  0.82493521  1.0
  Nb  Nb9  1  0.28889656  0.07562702  0.51694658  1.0
  Nb  Nb10  1  0.36191446  0.37276155  0.51620000  1.0
  Nb  Nb11  1  0.38246611  0.10564249  0.74801664  1.0
  Nb  Nb12  1  0.39448450  0.39239503  0.03237456  1.0
  Nb  Nb13  1  0.43374319  0.26698672  0.32675194  1.0
  Nb  Nb14  1  0.46478990  0.95778116  0.31817262  1.0
  Nb  Nb15  1  0.46631811  0.60439591  0.42856277  1.0
  Nb  Nb16  1  0.47061934  0.68212197  0.16360674  1.0
  Nb  Nb17  1  0.58286195  0.35885465  0.79526357  1.0
  Nb  Nb18  1  0.60694578  0.44938764  0.54932103  1.0
  Nb  Nb19  1  0.61818645  0.15385149  0.12253245  1.0
  Nb  Nb20  1  0.63675581  0.93610896  0.84118675  1.0
  Nb  Nb21  1  0.67020767  0.70435373  0.60951580  1.0
  Nb  Nb22  1  0.74719775  0.98674421  0.37690296  1.0
  Nb  Nb23  1  0.75340420  0.81737429  0.21926061  1.0
  Nb  Nb24  1  0.75739661  0.33242157  0.32195614  1.0
  Nb  Nb25  1  0.80818423  0.48452008  0.04577680  1.0
  Nb  Nb26  1  0.84496499  0.95195536  0.05968937  1.0
  Nb  Nb27  1  0.84994847  0.99037483  0.68666248  1.0
  Nb  Nb28  1  0.90450379  0.33636833  0.78829239  1.0
  Nb  Nb29  1  0.92366316  0.76149878  0.43486523  1.0
  Nb  Nb30  1  0.92606627  0.50481625  0.29669081  1.0
  Nb  Nb31  1  0.95394963  0.18389251  0.45139245  1.0
  Nb  Nb32  1  0.96269731  0.73003823  0.16795890  1.0
  Nb  Nb33  1  0.96409308  0.23579477  0.16342534  1.0
  O  O34  1  0.01060755  0.90577040  0.12996404  1.0
  O  O35  1  0.01177877  0.83557860  0.56493486  1.0
  O  O36  1  0.02170872  0.21283748  0.84372529  1.0
  O  O37  1  0.02265600  0.13736764  0.30129589  1.0
  O  O38  1  0.03058582  0.97719700  0.75691194  1.0
  O  O39  1  0.05721351  0.76337990  0.33075921  1.0
  O  O40  1  0.07420907  0.68435076  0.06473034  1.0
  O  O41  1  0.09834242  0.50655261  0.28550346  1.0
  O  O42  1  0.11413883  0.17129320  0.54745515  1.0
  O  O43  1  0.13156826  0.76507993  0.86711051  1.0
  O  O44  1  0.14985501  0.29211514  0.19150945  1.0
  O  O45  1  0.15778306  0.67909275  0.65170127  1.0
  O  O46  1  0.16549468  0.52260991  0.84411815  1.0
  O  O47  1  0.18297027  0.99192788  0.36602901  1.0
  O  O48  1  0.20524514  0.07754447  0.09187599  1.0
  O  O49  1  0.21212949  0.43130296  0.63798079  1.0
  O  O50  1  0.22680436  0.01456242  0.65751235  1.0
  O  O51  1  0.23351129  0.30847627  0.97473624  1.0
  O  O52  1  0.23605817  0.50357509  0.08230430  1.0
  O  O53  1  0.24026290  0.20474251  0.78588678  1.0
  O  O54  1  0.27729874  0.21926484  0.40938160  1.0
  O  O55  1  0.30603306  0.52098036  0.44479071  1.0
  O  O56  1  0.33137503  0.71592586  0.03597543  1.0
  O  O57  1  0.35074468  0.60458256  0.26542400  1.0
  O  O58  1  0.36470264  0.21000301  0.61319186  1.0
  O  O59  1  0.37590063  0.36182299  0.19693423  1.0
  O  O60  1  0.38375053  0.10732084  0.26095301  1.0
  O  O61  1  0.39378319  0.83460501  0.23418069  1.0
  O  O62  1  0.41571756  0.99690279  0.46635797  1.0
  O  O63  1  0.42537978  0.39943161  0.86366427  1.0
  O  O64  1  0.47008533  0.97830810  0.82509067  1.0
  O  O65  1  0.48003336  0.53529237  0.08049486  1.0
  O  O66  1  0.48097958  0.42711521  0.66289600  1.0
  O  O67  1  0.49624997  0.24175101  0.04037225  1.0
  O  O68  1  0.51003365  0.73726299  0.52715699  1.0
  O  O69  1  0.52179084  0.29454307  0.48513916  1.0
  O  O70  1  0.52898770  0.20704004  0.80251597  1.0
  O  O71  1  0.56328688  0.64418928  0.31074266  1.0
  O  O72  1  0.58916944  0.26962375  0.26184781  1.0
  O  O73  1  0.59410477  0.77475468  0.12406981  1.0
  O  O74  1  0.59734716  0.03294174  0.23681950  1.0
  O  O75  1  0.60755102  0.88620162  0.38463829  1.0
  O  O76  1  0.62121816  0.81392241  0.73626803  1.0
  O  O77  1  0.66741034  0.42668654  0.93724891  1.0
  O  O78  1  0.67108791  0.03866626  0.01504426  1.0
  O  O79  1  0.69985506  0.55425355  0.67345863  1.0
  O  O80  1  0.72474830  0.41983632  0.44483819  1.0
  O  O81  1  0.73424640  0.04354915  0.77490455  1.0
  O  O82  1  0.74014417  0.30997451  0.74158171  1.0
  O  O83  1  0.75213016  0.45929637  0.19993295  1.0
  O  O84  1  0.75562969  0.97474853  0.54592232  1.0
  O  O85  1  0.76936320  0.85777053  0.93591686  1.0
  O  O86  1  0.77283007  0.22561681  0.15992160  1.0
  O  O87  1  0.77653546  0.71766319  0.50859856  1.0
  O  O88  1  0.77903484  0.16892152  0.39586813  1.0
  O  O89  1  0.82710065  0.98883452  0.22579143  1.0
  O  O90  1  0.83085980  0.64177833  0.04636668  1.0
  O  O91  1  0.84470070  0.66982429  0.27655361  1.0
  O  O92  1  0.86191422  0.82821795  0.72103249  1.0
  O  O93  1  0.90301732  0.43424133  0.91231740  1.0
  O  O94  1  0.92639849  0.14325180  0.62722515  1.0
  O  O95  1  0.93228656  0.12121755  0.03308758  1.0
  O  O96  1  0.93557763  0.00844469  0.43303002  1.0
  O  O97  1  0.94233734  0.40427850  0.13503997  1.0
  O  O98  1  0.95082384  0.33425959  0.37040757  1.0
  O  O99  1  0.96381309  0.62118247  0.70946716  1.0
  O  O100  1  0.97697388  0.39872933  0.67263146  1.0
  O  O101  1  0.98547050  0.57188858  0.46894381  1.0
