# generated using pymatgen
data_NbO2
_symmetry_space_group_name_H-M   P1
_cell_length_a   10.78379565
_cell_length_b   11.15673565
_cell_length_c   11.36968420
_cell_angle_alpha   85.21756522
_cell_angle_beta   89.34906642
_cell_angle_gamma   86.14748709
_symmetry_Int_Tables_number   1
_chemical_formula_structural   NbO2
_chemical_formula_sum   'Nb34 O68'
_cell_volume   1360.04343152
_cell_formula_units_Z   34
loop_
 _symmetry_equiv_pos_site_id
 _symmetry_equiv_pos_as_xyz
  1  'x, y, z'
loop_
 _atom_site_type_symbol
 _atom_site_label
 _atom_site_symmetry_multiplicity
 _atom_site_fract_x
 _atom_site_fract_y
 _atom_site_fract_z
 _atom_site_occupancy
  Nb  Nb0  1  0.00718424  0.95269842  0.13458321  1.0
  Nb  Nb1  1  0.02622623  0.38822933  0.93625020  1.0
  Nb  Nb2  1  0.04426734  0.65042186  0.46636994  1.0
  Nb  Nb3  1  0.06967135  0.27052576  0.66631515  1.0
  Nb  Nb4  1  0.10030148  0.40992888  0.21842187  1.0
  Nb  Nb5  1  0.13527209  0.90105147  0.88299328  1.0
  Nb  Nb6  1  0.13988903  0.67420344  0.77433663  1.0
  Nb  Nb7  1  0.20870195  0.92627610  0.39399491  1.0
  Nb  Nb8  1  0.21565218  0.35339655  0.47227740  1.0
  Nb  Nb9  1  0.21720546  0.71243893  0.10826787  1.0
  Nb  Nb10  1  0.26650995  0.12094797  0.91001965  1.0
  Nb  Nb11  1  0.27564517  0.17037466  0.24979022  1.0
  Nb  Nb12  1  0.31534027  0.41706298  0.75671905  1.0
  Nb  Nb13  1  0.33501005  0.79333679  0.76452278  1.0
  Nb  Nb14  1  0.45112261  0.44116458  0.45693947  1.0
  Nb  Nb15  1  0.49712406  0.70929969  0.36856859  1.0
  Nb  Nb16  1  0.49728310  0.99862003  0.45957761  1.0
  Nb  Nb17  1  0.50255047  0.04764081  0.08420265  1.0
  Nb  Nb18  1  0.53167016  0.54241481  0.76331884  1.0
  Nb  Nb19  1  0.54972855  0.70672504  0.13700504  1.0
  Nb  Nb20  1  0.56490603  0.27209952  0.26836659  1.0
  Nb  Nb21  1  0.57700262  0.43378863  0.00325484  1.0
  Nb  Nb22  1  0.61904157  0.04805149  0.78938225  1.0
  Nb  Nb23  1  0.65739690  0.85520161  0.66595103  1.0
  Nb  Nb24  1  0.72307784  0.52925302  0.30156651  1.0
  Nb  Nb25  1  0.76824120  0.31355685  0.75606957  1.0
  Nb  Nb26  1  0.77011315  0.18305944  0.06024924  1.0
  Nb  Nb27  1  0.77274125  0.21896410  0.41281188  1.0
  Nb  Nb28  1  0.77387780  0.44534919  0.52590430  1.0
  Nb  Nb29  1  0.80599336  0.67874298  0.87729955  1.0
  Nb  Nb30  1  0.82401553  0.78646582  0.40975693  1.0
  Nb  Nb31  1  0.85304490  0.74872470  0.16970304  1.0
  Nb  Nb32  1  0.87227501  0.93731924  0.86804761  1.0
  Nb  Nb33  1  0.93200609  0.98199930  0.57433735  1.0
  O  O34  1  0.01325661  0.94880022  0.74968303  1.0
  O  O35  1  0.04155003  0.75459569  0.15668021  1.0
  O  O36  1  0.05827754  0.62685577  0.63283178  1.0
  O  O37  1  0.11068321  0.49518981  0.38014572  1.0
  O  O38  1  0.11071713  0.97657066  0.51575337  1.0
  O  O39  1  0.13370926  0.26364903  0.33750680  1.0
  O  O40  1  0.13798824  0.23843446  0.95398291  1.0
  O  O41  1  0.14847071  0.76941602  0.37655563  1.0
  O  O42  1  0.15111921  0.03013772  0.25366602  1.0
  O  O43  1  0.15858294  0.48246281  0.85618934  1.0
  O  O44  1  0.16761211  0.55299874  0.13390134  1.0
  O  O45  1  0.17199756  0.90643408  0.05964989  1.0
  O  O46  1  0.19392177  0.43154630  0.62343889  1.0
  O  O47  1  0.21524182  0.20863929  0.57373499  1.0
  O  O48  1  0.23265574  0.78430185  0.63569658  1.0
  O  O49  1  0.25162622  0.32871997  0.15845256  1.0
  O  O50  1  0.25345414  0.73383088  0.93529881  1.0
  O  O51  1  0.29171674  0.24377691  0.78286902  1.0
  O  O52  1  0.29662186  0.96817044  0.81441072  1.0
  O  O53  1  0.31654959  0.11338138  0.08171477  1.0
  O  O54  1  0.32473935  0.07385378  0.41743421  1.0
  O  O55  1  0.33936292  0.60102255  0.76436040  1.0
  O  O56  1  0.35788463  0.71343831  0.20591256  1.0
  O  O57  1  0.37033762  0.59511985  0.42728348  1.0
  O  O58  1  0.38731943  0.31377695  0.35478692  1.0
  O  O59  1  0.38850351  0.86648849  0.38061690  1.0
  O  O60  1  0.45029974  0.41184488  0.88592794  1.0
  O  O61  1  0.45684246  0.43547342  0.63254270  1.0
  O  O62  1  0.46862213  0.10639777  0.24743095  1.0
  O  O63  1  0.47852803  0.07464897  0.90989897  1.0
  O  O64  1  0.48397774  0.57065005  0.06426770  1.0
  O  O65  1  0.49392130  0.88099780  0.10543918  1.0
  O  O66  1  0.52652301  0.73030561  0.72069716  1.0
  O  O67  1  0.52889727  0.01785363  0.63002502  1.0
  O  O68  1  0.55484828  0.25787410  0.08263673  1.0
  O  O69  1  0.57955449  0.82745267  0.48085403  1.0
  O  O70  1  0.60298943  0.14155682  0.41844693  1.0
  O  O71  1  0.62462167  0.23025458  0.75646341  1.0
  O  O72  1  0.62553125  0.37252436  0.41597609  1.0
  O  O73  1  0.62960565  0.58661864  0.45666420  1.0
  O  O74  1  0.63953148  0.42402675  0.18614101  1.0
  O  O75  1  0.65421557  0.56874836  0.89223966  1.0
  O  O76  1  0.67656328  0.03911161  0.09105509  1.0
  O  O77  1  0.68232983  0.86940354  0.85168483  1.0
  O  O78  1  0.68328007  0.73425016  0.27343826  1.0
  O  O79  1  0.68998442  0.47679641  0.68471021  1.0
  O  O80  1  0.72423844  0.70410782  0.05059704  1.0
  O  O81  1  0.74371196  0.33416356  0.95149487  1.0
  O  O82  1  0.74656440  0.19707789  0.23082715  1.0
  O  O83  1  0.76310299  0.92078950  0.52058985  1.0
  O  O84  1  0.76724519  0.26031386  0.58054945  1.0
  O  O85  1  0.78202588  0.10131592  0.89463147  1.0
  O  O86  1  0.78691300  0.71206415  0.71394147  1.0
  O  O87  1  0.78866292  0.00449070  0.70101878  1.0
  O  O88  1  0.84669611  0.37070178  0.36101963  1.0
  O  O89  1  0.86338853  0.89378541  0.04365774  1.0
  O  O90  1  0.86545750  0.60001050  0.45511024  1.0
  O  O91  1  0.87827467  0.57381913  0.21534397  1.0
  O  O92  1  0.88713167  0.89597948  0.27729031  1.0
  O  O93  1  0.89525936  0.08741268  0.43095712  1.0
  O  O94  1  0.90919256  0.52949145  0.90533644  1.0
  O  O95  1  0.93154103  0.39863618  0.61630114  1.0
  O  O96  1  0.93512526  0.11698265  0.09101167  1.0
  O  O97  1  0.94981660  0.29406946  0.82274008  1.0
  O  O98  1  0.96063558  0.81025804  0.52526173  1.0
  O  O99  1  0.98280521  0.14570477  0.62820809  1.0
  O  O100  1  0.98363016  0.37007096  0.10499106  1.0
  O  O101  1  0.98931698  0.75068105  0.87385780  1.0
