# generated using pymatgen
data_NbO2
_symmetry_space_group_name_H-M   P1
_cell_length_a   11.24296082
_cell_length_b   11.30913925
_cell_length_c   11.59416102
_cell_angle_alpha   87.40378466
_cell_angle_beta   87.95558777
_cell_angle_gamma   92.44910245
_symmetry_Int_Tables_number   1
_chemical_formula_structural   NbO2
_chemical_formula_sum   'Nb34 O68'
_cell_volume   1470.27349474
_cell_formula_units_Z   34
loop_
 _symmetry_equiv_pos_site_id
 _symmetry_equiv_pos_as_xyz
  1  'x, y, z'
loop_
 _atom_site_type_symbol
 _atom_site_label
 _atom_site_symmetry_multiplicity
 _atom_site_fract_x
 _atom_site_fract_y
 _atom_site_fract_z
 _atom_site_occupancy
  Nb  Nb0  1  0.03433993  0.57537708  0.88147404  1.0
  Nb  Nb1  1  0.05361933  0.46739552  0.57915555  1.0
  Nb  Nb2  1  0.08050557  0.13640215  0.60047225  1.0
  Nb  Nb3  1  0.13087358  0.83940269  0.79500421  1.0
  Nb  Nb4  1  0.14880540  0.33207850  0.16340770  1.0
  Nb  Nb5  1  0.16643927  0.58084503  0.25291547  1.0
  Nb  Nb6  1  0.19376655  0.01279124  0.39313076  1.0
  Nb  Nb7  1  0.24334149  0.59336961  0.72226081  1.0
  Nb  Nb8  1  0.29926713  0.06357675  0.79106334  1.0
  Nb  Nb9  1  0.32620706  0.29576369  0.54375630  1.0
  Nb  Nb10  1  0.37044675  0.29921371  0.99539963  1.0
  Nb  Nb11  1  0.38043975  0.10185117  0.15916995  1.0
  Nb  Nb12  1  0.39800171  0.45418269  0.24891387  1.0
  Nb  Nb13  1  0.41752771  0.76270781  0.11881591  1.0
  Nb  Nb14  1  0.42566182  0.84442644  0.59603742  1.0
  Nb  Nb15  1  0.46361823  0.62773608  0.42538695  1.0
  Nb  Nb16  1  0.48883082  0.42039546  0.67592725  1.0
  Nb  Nb17  1  0.50341177  0.03641044  0.45058814  1.0
  Nb  Nb18  1  0.54831690  0.66392884  0.83565967  1.0
  Nb  Nb19  1  0.60694300  0.20663392  0.84967849  1.0
  Nb  Nb20  1  0.65107641  0.44582396  0.08702341  1.0
  Nb  Nb21  1  0.65908391  0.00287913  0.16759343  1.0
  Nb  Nb22  1  0.67863663  0.82007833  0.45087141  1.0
  Nb  Nb23  1  0.70007001  0.50215907  0.35736532  1.0
  Nb  Nb24  1  0.72738097  0.72246646  0.04405925  1.0
  Nb  Nb25  1  0.75489150  0.23965367  0.55856792  1.0
  Nb  Nb26  1  0.78773664  0.57990033  0.65484632  1.0
  Nb  Nb27  1  0.84425551  0.79868455  0.74149240  1.0
  Nb  Nb28  1  0.85898582  0.30478761  0.01143966  1.0
  Nb  Nb29  1  0.87690559  0.06468301  0.82087173  1.0
  Nb  Nb30  1  0.88301410  0.56877934  0.17333701  1.0
  Nb  Nb31  1  0.92491789  0.66830962  0.36676963  1.0
  Nb  Nb32  1  0.96984993  0.81407101  0.05114645  1.0
  Nb  Nb33  1  0.98483306  0.08818102  0.20364605  1.0
  O  O34  1  0.00212565  0.16088555  0.76125077  1.0
  O  O35  1  0.00767929  0.81235439  0.68361715  1.0
  O  O36  1  0.01193879  0.97512118  0.08690480  1.0
  O  O37  1  0.03160777  0.98043952  0.31746031  1.0
  O  O38  1  0.03412101  0.70313048  0.20975808  1.0
  O  O39  1  0.05307938  0.55010286  0.40283298  1.0
  O  O40  1  0.05517116  0.48129501  0.15604521  1.0
  O  O41  1  0.06972944  0.99322336  0.52198309  1.0
  O  O42  1  0.07535420  0.22808428  0.27984866  1.0
  O  O43  1  0.08947794  0.74442868  0.94048683  1.0
  O  O44  1  0.09863338  0.46951065  0.74490899  1.0
  O  O45  1  0.13742296  0.33031254  0.55180600  1.0
  O  O46  1  0.14062553  0.61725835  0.58768901  1.0
  O  O47  1  0.14296490  0.00456974  0.71792841  1.0
  O  O48  1  0.20550867  0.32179097  0.99599761  1.0
  O  O49  1  0.20734855  0.56409302  0.89044879  1.0
  O  O50  1  0.21144436  0.15852253  0.46016871  1.0
  O  O51  1  0.22496155  0.05749209  0.22718875  1.0
  O  O52  1  0.23211481  0.94229282  0.89810640  1.0
  O  O53  1  0.24599703  0.19594990  0.68602822  1.0
  O  O54  1  0.26311361  0.69820733  0.14794393  1.0
  O  O55  1  0.26995903  0.77488549  0.72273976  1.0
  O  O56  1  0.30363288  0.57169888  0.35573598  1.0
  O  O57  1  0.32350716  0.28555386  0.18778335  1.0
  O  O58  1  0.32598984  0.92909090  0.46099145  1.0
  O  O59  1  0.36707418  0.68318889  0.55292456  1.0
  O  O60  1  0.37691547  0.36862064  0.40099202  1.0
  O  O61  1  0.39360640  0.14853206  0.90202161  1.0
  O  O62  1  0.40560782  0.98730071  0.70020552  1.0
  O  O63  1  0.40758795  0.93024139  0.13806410  1.0
  O  O64  1  0.42114559  0.56008140  0.76603755  1.0
  O  O65  1  0.43761623  0.16362906  0.52075032  1.0
  O  O66  1  0.45137881  0.72397623  0.96405103  1.0
  O  O67  1  0.46702026  0.42458369  0.06911010  1.0
  O  O68  1  0.47383392  0.64604423  0.23065971  1.0
  O  O69  1  0.48012715  0.33860368  0.83878066  1.0
  O  O70  1  0.51936990  0.77937745  0.72847980  1.0
  O  O71  1  0.54475566  0.51742419  0.53174516  1.0
  O  O72  1  0.55592380  0.12790762  0.18100983  1.0
  O  O73  1  0.58563517  0.41956685  0.24990702  1.0
  O  O74  1  0.59014404  0.92305088  0.55751403  1.0
  O  O75  1  0.61048314  0.07570731  0.94243511  1.0
  O  O76  1  0.61822283  0.94638296  0.32702100  1.0
  O  O77  1  0.62229953  0.31163346  0.65241027  1.0
  O  O78  1  0.62292309  0.84243348  0.10542447  1.0
  O  O79  1  0.63487173  0.58062568  0.98092398  1.0
  O  O80  1  0.64099755  0.67077082  0.37283590  1.0
  O  O81  1  0.65086879  0.54324520  0.75119252  1.0
  O  O82  1  0.67273192  0.12800247  0.48251360  1.0
  O  O83  1  0.67656504  0.31260130  0.96979266  1.0
  O  O84  1  0.71647588  0.76336877  0.86965818  1.0
  O  O85  1  0.74454565  0.75135308  0.60561948  1.0
  O  O86  1  0.74915881  0.17556600  0.75197147  1.0
  O  O87  1  0.75268757  0.35647503  0.43301310  1.0
  O  O88  1  0.81026460  0.96646750  0.70489846  1.0
  O  O89  1  0.81431633  0.07558029  0.20290099  1.0
  O  O90  1  0.81462463  0.57928551  0.47831141  1.0
  O  O91  1  0.81507971  0.39672354  0.15258570  1.0
  O  O92  1  0.83533169  0.75275815  0.17179507  1.0
  O  O93  1  0.84002103  0.13731754  0.96245078  1.0
  O  O94  1  0.84588094  0.81522489  0.40025881  1.0
  O  O95  1  0.89071745  0.43329575  0.62440939  1.0
  O  O96  1  0.89931737  0.64312603  0.99884681  1.0
  O  O97  1  0.90857320  0.61526381  0.76850224  1.0
  O  O98  1  0.92347178  0.18773284  0.55301458  1.0
  O  O99  1  0.93400844  0.41726223  0.91509509  1.0
  O  O100  1  0.93682569  0.90143639  0.88383541  1.0
  O  O101  1  0.99794165  0.24319269  0.08921454  1.0
