# generated using pymatgen
data_NbPRu
_symmetry_space_group_name_H-M   Pnma
_cell_length_a   3.75888700
_cell_length_b   6.36343600
_cell_length_c   7.20949900
_cell_angle_alpha   90.00000000
_cell_angle_beta   90.00000000
_cell_angle_gamma   90.00000000
_symmetry_Int_Tables_number   62
_chemical_formula_structural   NbPRu
_chemical_formula_sum   'Nb4 P4 Ru4'
_cell_volume   172.44715609
_cell_formula_units_Z   4
loop_
 _symmetry_equiv_pos_site_id
 _symmetry_equiv_pos_as_xyz
  1  'x, y, z'
  2  '-x, -y, -z'
  3  '-x, -y+1/2, z+1/2'
  4  'x, y+1/2, -z+1/2'
  5  '-x+1/2, y+1/2, -z+1/2'
  6  'x+1/2, -y+1/2, z+1/2'
  7  'x+1/2, -y, -z'
  8  '-x+1/2, y, z'
loop_
 _atom_site_type_symbol
 _atom_site_label
 _atom_site_symmetry_multiplicity
 _atom_site_fract_x
 _atom_site_fract_y
 _atom_site_fract_z
 _atom_site_occupancy
  Nb  Nb0  4  0.25000000  0.02385200  0.82689300  1.0
  P  P1  4  0.25000000  0.26824900  0.12252600  1.0
  Ru  Ru2  4  0.25000000  0.14456700  0.43687500  1.0
