# generated using pymatgen
data_NbPSe
_symmetry_space_group_name_H-M   Immm
_cell_length_a   3.47929000
_cell_length_b   4.86044600
_cell_length_c   6.97321847
_cell_angle_alpha   110.39608991
_cell_angle_beta   104.44645879
_cell_angle_gamma   90.00000002
_symmetry_Int_Tables_number   71
_chemical_formula_structural   NbPSe
_chemical_formula_sum   'Nb2 P2 Se2'
_cell_volume   106.54327710
_cell_formula_units_Z   2
loop_
 _symmetry_equiv_pos_site_id
 _symmetry_equiv_pos_as_xyz
  1  'x, y, z'
  2  '-x, -y, -z'
  3  '-x+z, -y+z, z'
  4  'x-z, y-z, -z'
  5  'x-z, -y, -z'
  6  '-x+z, y, z'
  7  '-x, y-z, -z'
  8  'x, -y+z, z'
loop_
 _atom_site_type_symbol
 _atom_site_label
 _atom_site_symmetry_multiplicity
 _atom_site_fract_x
 _atom_site_fract_y
 _atom_site_fract_z
 _atom_site_occupancy
  Nb  Nb0  2  0.11554800  0.61554800  0.23109600  1.0
  P  P1  2  0.50000000  0.23388300  0.00000000  1.0
  Se  Se2  2  0.21322900  0.21322900  0.42645800  1.0
