# generated using pymatgen
data_NbS2
_symmetry_space_group_name_H-M   Fmm2
_cell_length_a   3.35555200
_cell_length_b   3.35678765
_cell_length_c   11.61157865
_cell_angle_alpha   85.85853785
_cell_angle_beta   81.69215785
_cell_angle_gamma   60.01217618
_symmetry_Int_Tables_number   42
_chemical_formula_structural   NbS2
_chemical_formula_sum   'Nb1 S2'
_cell_volume   112.09376491
_cell_formula_units_Z   1
loop_
 _symmetry_equiv_pos_site_id
 _symmetry_equiv_pos_as_xyz
  1  'x, y, z'
  2  '-x-y, y, -z'
  3  '-x-y-z, y, z'
  4  'x+z, y, -z'
loop_
 _atom_site_type_symbol
 _atom_site_label
 _atom_site_symmetry_multiplicity
 _atom_site_fract_x
 _atom_site_fract_y
 _atom_site_fract_z
 _atom_site_occupancy
  Nb  Nb0  1  0.92243800  0.15512400  0.00000000  1.0
  S  S1  2  0.18751600  0.48848800  0.13648000  1.0
