# generated using pymatgen
data_NbSe3
_symmetry_space_group_name_H-M   P2_1/m
_cell_length_a   3.51524800
_cell_length_b   10.74946300
_cell_length_c   15.84325968
_cell_angle_alpha   108.65098877
_cell_angle_beta   90.00000000
_cell_angle_gamma   90.00000000
_symmetry_Int_Tables_number   11
_chemical_formula_structural   NbSe3
_chemical_formula_sum   'Nb6 Se18'
_cell_volume   567.23007528
_cell_formula_units_Z   6
loop_
 _symmetry_equiv_pos_site_id
 _symmetry_equiv_pos_as_xyz
  1  'x, y, z'
  2  '-x, -y, -z'
  3  'x+1/2, -y, -z'
  4  '-x+1/2, y, z'
loop_
 _atom_site_type_symbol
 _atom_site_label
 _atom_site_symmetry_multiplicity
 _atom_site_fract_x
 _atom_site_fract_y
 _atom_site_fract_z
 _atom_site_occupancy
  Nb  Nb0  2  0.25000000  0.33614100  0.21108600  1.0
  Nb  Nb1  2  0.25000000  0.35214600  0.88448700  1.0
  Nb  Nb2  2  0.25000000  0.69431600  0.53734600  1.0
  Se  Se3  2  0.25000000  0.10778500  0.42557400  1.0
  Se  Se4  2  0.25000000  0.25711100  0.57613400  1.0
  Se  Se5  2  0.25000000  0.44865600  0.40705100  1.0
  Se  Se6  2  0.25000000  0.45007500  0.06895000  1.0
  Se  Se7  2  0.25000000  0.46630800  0.75034400  1.0
  Se  Se8  2  0.25000000  0.79223900  0.23270100  1.0
  Se  Se9  2  0.25000000  0.79488900  0.72013600  1.0
  Se  Se10  2  0.25000000  0.80628000  0.90540200  1.0
  Se  Se11  2  0.25000000  0.81213800  0.07869700  1.0
