# generated using pymatgen
data_Nb3.63636364Se8
_symmetry_space_group_name_H-M   C222_1
_cell_length_a   3.49768581
_cell_length_b   3.49768581
_cell_length_c   37.79511500
_cell_angle_alpha   90.00000000
_cell_angle_beta   90.00000000
_cell_angle_gamma   119.95625962
_symmetry_Int_Tables_number   20
_chemical_formula_structural   Nb3.63636364Se8
_chemical_formula_sum   'Nb3.63636364 Se8'
_cell_volume   400.60756180
_cell_formula_units_Z   1
loop_
 _symmetry_equiv_pos_site_id
 _symmetry_equiv_pos_as_xyz
  1  'x, y, z'
  2  '-x, -y, z+1/2'
  3  'y, x, -z'
  4  '-y, -x, -z+1/2'
loop_
 _atom_site_type_symbol
 _atom_site_label
 _atom_site_symmetry_multiplicity
 _atom_site_fract_x
 _atom_site_fract_y
 _atom_site_fract_z
 _atom_site_occupancy
  Nb  Nb0  4  0.24025100  0.24134200  0.41449100  0.9090909091
  Se  Se1  4  0.09292800  0.42454600  0.86961000  1.0
  Se  Se2  4  0.09348600  0.42562700  0.95891900  1.0
