# generated using pymatgen
data_NbS3
_symmetry_space_group_name_H-M   P2_1/m
_cell_length_a   3.38075800
_cell_length_b   9.81880100
_cell_length_c   14.99522483
_cell_angle_alpha   108.53090367
_cell_angle_beta   90.00000000
_cell_angle_gamma   90.00000000
_symmetry_Int_Tables_number   11
_chemical_formula_structural   NbS3
_chemical_formula_sum   'Nb6 S18'
_cell_volume   471.95833499
_cell_formula_units_Z   6
loop_
 _symmetry_equiv_pos_site_id
 _symmetry_equiv_pos_as_xyz
  1  'x, y, z'
  2  '-x, -y, -z'
  3  'x+1/2, -y, -z'
  4  '-x+1/2, y, z'
loop_
 _atom_site_type_symbol
 _atom_site_label
 _atom_site_symmetry_multiplicity
 _atom_site_fract_x
 _atom_site_fract_y
 _atom_site_fract_z
 _atom_site_occupancy
  Nb  Nb0  2  0.25000000  0.11226200  0.79386900  1.0
  Nb  Nb1  2  0.25000000  0.15973700  0.45999600  1.0
  Nb  Nb2  2  0.25000000  0.47301200  0.11662400  1.0
  S  S3  2  0.25000000  0.04044300  0.59438400  1.0
  S  S4  2  0.25000000  0.08815700  0.27785000  1.0
  S  S5  2  0.25000000  0.37523600  0.93390800  1.0
  S  S6  2  0.25000000  0.57291900  0.76944900  1.0
  S  S7  2  0.25000000  0.66561300  0.56816800  1.0
  S  S8  2  0.25000000  0.67422400  0.43143900  1.0
  S  S9  2  0.25000000  0.72303500  0.24801600  1.0
  S  S10  2  0.25000000  0.72976900  0.90411400  1.0
  S  S11  2  0.25000000  0.90919800  0.08949600  1.0
