# generated using pymatgen
data_Sr3.6Nb4O12
_symmetry_space_group_name_H-M   Pnma
_cell_length_a   5.75165400
_cell_length_b   5.75490600
_cell_length_c   8.19662000
_cell_angle_alpha   90.00000000
_cell_angle_beta   90.00000000
_cell_angle_gamma   90.00000000
_symmetry_Int_Tables_number   62
_chemical_formula_structural   Sr3.6Nb4O12
_chemical_formula_sum   'Sr3.6 Nb4 O12'
_cell_volume   271.30999177
_cell_formula_units_Z   1
loop_
 _symmetry_equiv_pos_site_id
 _symmetry_equiv_pos_as_xyz
  1  'x, y, z'
  2  '-x, -y, -z'
  3  'x+1/2, -y+1/2, -z'
  4  '-x+1/2, y+1/2, z'
  5  '-x+1/2, y+1/2, -z+1/2'
  6  'x+1/2, -y+1/2, z+1/2'
  7  '-x, -y, z+1/2'
  8  'x, y, -z+1/2'
loop_
 _atom_site_type_symbol
 _atom_site_label
 _atom_site_symmetry_multiplicity
 _atom_site_fract_x
 _atom_site_fract_y
 _atom_site_fract_z
 _atom_site_occupancy
  Sr  Sr0  4  0.00026200  0.98253000  0.75000000  0.9
  Nb  Nb1  4  0.00000000  0.50000000  0.00000000  1.0
  O  O2  8  0.21892700  0.21911800  0.51889800  1.0
  O  O3  4  0.03769200  0.49428700  0.25000000  1.0
