# generated using pymatgen
data_NbS2
_symmetry_space_group_name_H-M   R3m
_cell_length_a   3.36218107
_cell_length_b   3.36218107
_cell_length_c   6.81621093
_cell_angle_alpha   75.72174508
_cell_angle_beta   75.72174508
_cell_angle_gamma   60.00001838
_symmetry_Int_Tables_number   160
_chemical_formula_structural   NbS2
_chemical_formula_sum   'Nb1 S2'
_cell_volume   63.96603540
_cell_formula_units_Z   1
loop_
 _symmetry_equiv_pos_site_id
 _symmetry_equiv_pos_as_xyz
  1  'x, y, z'
  2  'y, -x-y-z, z'
  3  '-x-y-z, x, z'
  4  'x, -x-y-z, z'
  5  'y, x, z'
  6  '-x-y-z, y, z'
loop_
 _atom_site_type_symbol
 _atom_site_label
 _atom_site_symmetry_multiplicity
 _atom_site_fract_x
 _atom_site_fract_y
 _atom_site_fract_z
 _atom_site_occupancy
  Nb  Nb0  1  0.00026900  0.00026900  0.99919300  1.0
  S  S1  1  0.58688400  0.58688400  0.23934800  1.0
  S  S2  1  0.74684700  0.74684700  0.75945900  1.0
