# generated using pymatgen
data_NbSb2
_symmetry_space_group_name_H-M   C2/m
_cell_length_a   3.67536200
_cell_length_b   5.49377075
_cell_length_c   7.58684000
_cell_angle_alpha   78.40461336
_cell_angle_beta   75.98242268
_cell_angle_gamma   70.45770144
_symmetry_Int_Tables_number   12
_chemical_formula_structural   NbSb2
_chemical_formula_sum   'Nb2 Sb4'
_cell_volume   138.85577630
_cell_formula_units_Z   2
loop_
 _symmetry_equiv_pos_site_id
 _symmetry_equiv_pos_as_xyz
  1  'x, y, z'
  2  '-x, -y, -z'
  3  'x+y+z, -y, -z'
  4  '-x-y-z, y, z'
loop_
 _atom_site_type_symbol
 _atom_site_label
 _atom_site_symmetry_multiplicity
 _atom_site_fract_x
 _atom_site_fract_y
 _atom_site_fract_z
 _atom_site_occupancy
  Nb  Nb0  2  0.15171300  0.88693600  0.80963800  1.0
  Sb  Sb1  2  0.14903400  0.23781700  0.46411500  1.0
  Sb  Sb2  2  0.40500600  0.30152500  0.88846300  1.0
