# generated using pymatgen
data_NbSe2
_symmetry_space_group_name_H-M   R3m
_cell_length_a   3.49145368
_cell_length_b   3.49145368
_cell_length_c   7.25321124
_cell_angle_alpha   76.07313280
_cell_angle_beta   76.07313280
_cell_angle_gamma   60.00000611
_symmetry_Int_Tables_number   160
_chemical_formula_structural   NbSe2
_chemical_formula_sum   'Nb1 Se2'
_cell_volume   73.55605574
_cell_formula_units_Z   1
loop_
 _symmetry_equiv_pos_site_id
 _symmetry_equiv_pos_as_xyz
  1  'x, y, z'
  2  'y, -x-y-z, z'
  3  '-x-y-z, x, z'
  4  'x, -x-y-z, z'
  5  'y, x, z'
  6  '-x-y-z, y, z'
loop_
 _atom_site_type_symbol
 _atom_site_label
 _atom_site_symmetry_multiplicity
 _atom_site_fract_x
 _atom_site_fract_y
 _atom_site_fract_z
 _atom_site_occupancy
  Nb  Nb0  1  0.66747400  0.66747400  0.99757800  1.0
  Se  Se1  1  0.25348400  0.25348400  0.23954800  1.0
  Se  Se2  1  0.41470900  0.41470900  0.75587300  1.0
