# generated using pymatgen
data_NbS2
_symmetry_space_group_name_H-M   Fmm2
_cell_length_a   3.35617862
_cell_length_b   3.35617862
_cell_length_c   22.16336775
_cell_angle_alpha   92.17913877
_cell_angle_beta   92.17913890
_cell_angle_gamma   119.85443945
_symmetry_Int_Tables_number   42
_chemical_formula_structural   NbS2
_chemical_formula_sum   'Nb1 S2'
_cell_volume   215.89258410
_cell_formula_units_Z   1
loop_
 _symmetry_equiv_pos_site_id
 _symmetry_equiv_pos_as_xyz
  1  'x, y, z'
  2  '-y, -x, -z'
  3  '-y+z, -x+z, z'
  4  'x-z, y-z, -z'
loop_
 _atom_site_type_symbol
 _atom_site_label
 _atom_site_symmetry_multiplicity
 _atom_site_fract_x
 _atom_site_fract_y
 _atom_site_fract_z
 _atom_site_occupancy
  Nb  Nb0  1  0.07053900  0.92946100  0.00000000  1.0
  S  S1  2  0.70116400  0.22790300  0.92906700  1.0
