# generated using pymatgen
data_Sr5.25Nb7O21
_symmetry_space_group_name_H-M   R-3
_cell_length_a   7.05762289
_cell_length_b   9.09879925
_cell_length_c   9.09879925
_cell_angle_alpha   113.56092094
_cell_angle_beta   104.98434395
_cell_angle_gamma   104.98434395
_symmetry_Int_Tables_number   148
_chemical_formula_structural   Sr5.25Nb7O21
_chemical_formula_sum   'Sr5.25 Nb7 O21'
_cell_volume   472.18083242
_cell_formula_units_Z   1
loop_
 _symmetry_equiv_pos_site_id
 _symmetry_equiv_pos_as_xyz
  1  'x, y, z'
  2  '-x, -y, -z'
  3  'x-z, -z, y-z'
  4  '-x+z, z, -y+z'
  5  'x-y, -y+z, -y'
  6  '-x+y, y-z, y'
loop_
 _atom_site_type_symbol
 _atom_site_label
 _atom_site_symmetry_multiplicity
 _atom_site_fract_x
 _atom_site_fract_y
 _atom_site_fract_z
 _atom_site_occupancy
  Sr  Sr0  6  0.14243800  0.85770900  0.57461700  0.875
  Nb  Nb1  6  0.06900000  0.42408800  0.28225600  1.0
  Nb  Nb2  1  0.50000000  0.00000000  0.00000000  1.0
  O  O3  6  0.07183200  0.42877700  0.78625000  1.0
  O  O4  6  0.07323200  0.92707300  0.29307100  1.0
  O  O5  6  0.21985700  0.78033600  0.85338300  1.0
  O  O6  3  0.00000000  0.50000000  0.50000000  1.0
