# generated using pymatgen
data_Ti3Nb
_symmetry_space_group_name_H-M   Amm2
_cell_length_a   2.89984245
_cell_length_b   2.89984245
_cell_length_c   9.06913000
_cell_angle_alpha   90.00000000
_cell_angle_beta   90.00000000
_cell_angle_gamma   112.04047838
_symmetry_Int_Tables_number   38
_chemical_formula_structural   Ti3Nb
_chemical_formula_sum   'Ti3 Nb1'
_cell_volume   70.68971068
_cell_formula_units_Z   1
loop_
 _symmetry_equiv_pos_site_id
 _symmetry_equiv_pos_as_xyz
  1  'x, y, z'
  2  '-y, -x, -z'
  3  'x, y, -z'
  4  '-y, -x, z'
loop_
 _atom_site_type_symbol
 _atom_site_label
 _atom_site_symmetry_multiplicity
 _atom_site_fract_x
 _atom_site_fract_y
 _atom_site_fract_z
 _atom_site_occupancy
  Ti  Ti0  2  0.20004400  0.79995600  0.24802200  1.0
  Ti  Ti1  1  0.80844400  0.19155600  0.00000000  1.0
  Nb  Nb2  1  0.79146700  0.20853300  0.50000000  1.0
