# generated using pymatgen
data_Nb2PdS5
_symmetry_space_group_name_H-M   C2/m
_cell_length_a   3.30882600
_cell_length_b   6.49739753
_cell_length_c   15.35182119
_cell_angle_alpha   78.17174635
_cell_angle_beta   83.81341637
_cell_angle_gamma   75.24851428
_symmetry_Int_Tables_number   12
_chemical_formula_structural   Nb2PdS5
_chemical_formula_sum   'Nb4 Pd2 S10'
_cell_volume   311.85060909
_cell_formula_units_Z   2
loop_
 _symmetry_equiv_pos_site_id
 _symmetry_equiv_pos_as_xyz
  1  'x, y, z'
  2  '-x, -y, -z'
  3  'x+y+z, -y, -z'
  4  '-x-y-z, y, z'
loop_
 _atom_site_type_symbol
 _atom_site_label
 _atom_site_symmetry_multiplicity
 _atom_site_fract_x
 _atom_site_fract_y
 _atom_site_fract_z
 _atom_site_occupancy
  Nb  Nb0  2  0.15254700  0.06975400  0.62515200  1.0
  Nb  Nb1  2  0.42344200  0.97212800  0.18098800  1.0
  Pd  Pd2  1  0.00000000  0.00000000  0.00000000  1.0
  Pd  Pd3  1  0.00000000  0.50000000  0.50000000  1.0
  S  S4  2  0.07120700  0.72845100  0.12913500  1.0
  S  S5  2  0.17025800  0.76243700  0.89704700  1.0
  S  S6  2  0.25082200  0.20004100  0.29831500  1.0
  S  S7  2  0.35221500  0.78951500  0.50605500  1.0
  S  S8  2  0.49529200  0.69187400  0.31754200  1.0
