# generated using pymatgen
data_Nb2Se3
_symmetry_space_group_name_H-M   P3m1
_cell_length_a   3.45366800
_cell_length_b   3.45366781
_cell_length_c   13.70629800
_cell_angle_alpha   90.00000000
_cell_angle_beta   90.00000000
_cell_angle_gamma   120.00000186
_symmetry_Int_Tables_number   156
_chemical_formula_structural   Nb2Se3
_chemical_formula_sum   'Nb2 Se3'
_cell_volume   141.58327142
_cell_formula_units_Z   1
loop_
 _symmetry_equiv_pos_site_id
 _symmetry_equiv_pos_as_xyz
  1  'x, y, z'
  2  '-y, x-y, z'
  3  '-x+y, -x, z'
  4  '-y, -x, z'
  5  '-x+y, y, z'
  6  'x, x-y, z'
loop_
 _atom_site_type_symbol
 _atom_site_label
 _atom_site_symmetry_multiplicity
 _atom_site_fract_x
 _atom_site_fract_y
 _atom_site_fract_z
 _atom_site_occupancy
  Nb  Nb0  1  0.00000000  0.00000000  0.24789900  1.0
  Nb  Nb1  1  0.00000000  0.00000000  0.50421700  1.0
  Se  Se2  1  0.33333333  0.66666667  0.12360200  1.0
  Se  Se3  1  0.33333333  0.66666667  0.37177000  1.0
  Se  Se4  1  0.66666667  0.33333333  0.62751200  1.0
