# generated using pymatgen
data_Nb2Se3
_symmetry_space_group_name_H-M   P2_1/m
_cell_length_a   3.46735400
_cell_length_b   6.63692900
_cell_length_c   9.31098510
_cell_angle_alpha   104.15324640
_cell_angle_beta   90.00000000
_cell_angle_gamma   90.00000000
_symmetry_Int_Tables_number   11
_chemical_formula_structural   Nb2Se3
_chemical_formula_sum   'Nb4 Se6'
_cell_volume   207.76569358
_cell_formula_units_Z   2
loop_
 _symmetry_equiv_pos_site_id
 _symmetry_equiv_pos_as_xyz
  1  'x, y, z'
  2  '-x, -y, -z'
  3  'x+1/2, -y, -z'
  4  '-x+1/2, y, z'
loop_
 _atom_site_type_symbol
 _atom_site_label
 _atom_site_symmetry_multiplicity
 _atom_site_fract_x
 _atom_site_fract_y
 _atom_site_fract_z
 _atom_site_occupancy
  Nb  Nb0  2  0.25000000  0.68116800  0.99810700  1.0
  Nb  Nb1  2  0.25000000  0.88593300  0.36466100  1.0
  Se  Se2  2  0.25000000  0.02796700  0.84319300  1.0
  Se  Se3  2  0.25000000  0.27110800  0.48702000  1.0
  Se  Se4  2  0.25000000  0.47628200  0.20310500  1.0
