# generated using pymatgen
data_Nb5.33333333Se8
_symmetry_space_group_name_H-M   P6_3/m
_cell_length_a   3.48323900
_cell_length_b   10.17381000
_cell_length_c   10.17381008
_cell_angle_alpha   119.99999976
_cell_angle_beta   90.00000000
_cell_angle_gamma   90.00000000
_symmetry_Int_Tables_number   176
_chemical_formula_structural   Nb5.33333333Se8
_chemical_formula_sum   'Nb5.33333333 Se8'
_cell_volume   312.23469245
_cell_formula_units_Z   1
loop_
 _symmetry_equiv_pos_site_id
 _symmetry_equiv_pos_as_xyz
  1  'x, y, z'
  2  '-x, -y, -z'
  3  'x+1/2, y-z, y'
  4  '-x+1/2, -y+z, -y'
  5  'x, -z, y-z'
  6  '-x, z, -y+z'
  7  'x+1/2, -y, -z'
  8  '-x+1/2, y, z'
  9  'x, -y+z, -y'
  10  '-x, y-z, y'
  11  'x+1/2, z, -y+z'
  12  '-x+1/2, -z, y-z'
loop_
 _atom_site_type_symbol
 _atom_site_label
 _atom_site_symmetry_multiplicity
 _atom_site_fract_x
 _atom_site_fract_y
 _atom_site_fract_z
 _atom_site_occupancy
  Nb  Nb0  6  0.25000000  0.48734400  0.37969300  0.8888888888833333
  Se  Se1  6  0.25000000  0.34215300  0.06153600  1.0
  Se  Se2  2  0.25000000  0.33333333  0.66666667  1.0
