# generated using pymatgen
data_Nb2Se3
_symmetry_space_group_name_H-M   Pm
_cell_length_a   3.34921500
_cell_length_b   7.16134887
_cell_length_c   9.16454708
_cell_angle_alpha   102.55600089
_cell_angle_beta   90.00000000
_cell_angle_gamma   90.00000000
_symmetry_Int_Tables_number   6
_chemical_formula_structural   Nb2Se3
_chemical_formula_sum   'Nb4 Se6'
_cell_volume   214.55372355
_cell_formula_units_Z   2
loop_
 _symmetry_equiv_pos_site_id
 _symmetry_equiv_pos_as_xyz
  1  'x, y, z'
  2  '-x, y, z'
loop_
 _atom_site_type_symbol
 _atom_site_label
 _atom_site_symmetry_multiplicity
 _atom_site_fract_x
 _atom_site_fract_y
 _atom_site_fract_z
 _atom_site_occupancy
  Nb  Nb0  1  0.00000000  0.59787600  0.58550800  1.0
  Nb  Nb1  1  0.00000000  0.93906100  0.94508100  1.0
  Nb  Nb2  1  0.50000000  0.27412400  0.74711000  1.0
  Nb  Nb3  1  0.50000000  0.59746500  0.09385700  1.0
  Se  Se4  1  0.00000000  0.22560500  0.52650500  1.0
  Se  Se5  1  0.00000000  0.54377000  0.86231600  1.0
  Se  Se6  1  0.00000000  0.59810000  0.31441200  1.0
  Se  Se7  1  0.50000000  0.22087500  0.02895300  1.0
  Se  Se8  1  0.50000000  0.89315300  0.70356800  1.0
  Se  Se9  1  0.50000000  0.94330300  0.19269000  1.0
