# generated using pymatgen
data_Nb3P
_symmetry_space_group_name_H-M   P4_2/n
_cell_length_a   5.12119400
_cell_length_b   10.20231800
_cell_length_c   10.20231800
_cell_angle_alpha   90.00000000
_cell_angle_beta   90.00000000
_cell_angle_gamma   90.00000000
_symmetry_Int_Tables_number   86
_chemical_formula_structural   Nb3P
_chemical_formula_sum   'Nb24 P8'
_cell_volume   533.05121820
_cell_formula_units_Z   8
loop_
 _symmetry_equiv_pos_site_id
 _symmetry_equiv_pos_as_xyz
  1  'x, y, z'
  2  'x+1/2, -z+1/2, y+1/2'
  3  'x, -y, -z'
  4  'x+1/2, z+1/2, -y+1/2'
  5  '-x+1/2, -y+1/2, -z+1/2'
  6  '-x, z, -y'
  7  '-x+1/2, y+1/2, z+1/2'
  8  '-x, -z, y'
loop_
 _atom_site_type_symbol
 _atom_site_label
 _atom_site_symmetry_multiplicity
 _atom_site_fract_x
 _atom_site_fract_y
 _atom_site_fract_z
 _atom_site_occupancy
  Nb  Nb0  8  0.01002100  0.19094400  0.28691000  1.0
  Nb  Nb1  8  0.02399400  0.09694300  0.58621700  1.0
  Nb  Nb2  8  0.23498600  0.48721000  0.64507100  1.0
  P  P3  8  0.23059100  0.20708000  0.02416500  1.0
