# generated using pymatgen
data_Nb3P
_symmetry_space_group_name_H-M   I-4
_cell_length_a   5.10481600
_cell_length_b   7.66544588
_cell_length_c   7.66544588
_cell_angle_alpha   83.63436397
_cell_angle_beta   70.55050548
_cell_angle_gamma   70.55050550
_symmetry_Int_Tables_number   82
_chemical_formula_structural   Nb3P
_chemical_formula_sum   'Nb12 P4'
_cell_volume   266.69740552
_cell_formula_units_Z   4
loop_
 _symmetry_equiv_pos_site_id
 _symmetry_equiv_pos_as_xyz
  1  'x, y, z'
  2  '-x-y, -z, y'
  3  'x+y+z, -y, -z'
  4  '-x-z, z, -y'
loop_
 _atom_site_type_symbol
 _atom_site_label
 _atom_site_symmetry_multiplicity
 _atom_site_fract_x
 _atom_site_fract_y
 _atom_site_fract_z
 _atom_site_occupancy
  Nb  Nb0  4  0.03702900  0.33829000  0.62271100  1.0
  Nb  Nb1  4  0.03879000  0.03132000  0.40318100  1.0
  Nb  Nb2  4  0.15958300  0.18365700  0.98395400  1.0
  P  P3  4  0.18873100  0.32586300  0.26055100  1.0
