# generated using pymatgen
data_Nb3S4
_symmetry_space_group_name_H-M   P6_3/m
_cell_length_a   3.40854500
_cell_length_b   9.66783200
_cell_length_c   9.66783190
_cell_angle_alpha   120.00000033
_cell_angle_beta   90.00000000
_cell_angle_gamma   90.00000000
_symmetry_Int_Tables_number   176
_chemical_formula_structural   Nb3S4
_chemical_formula_sum   'Nb6 S8'
_cell_volume   275.90390524
_cell_formula_units_Z   2
loop_
 _symmetry_equiv_pos_site_id
 _symmetry_equiv_pos_as_xyz
  1  'x, y, z'
  2  '-x, -y, -z'
  3  'x+1/2, z, -y+z'
  4  '-x+1/2, -z, y-z'
  5  'x, -y+z, -y'
  6  '-x, y-z, y'
  7  'x+1/2, -y, -z'
  8  '-x+1/2, y, z'
  9  'x, -z, y-z'
  10  '-x, z, -y+z'
  11  'x+1/2, y-z, y'
  12  '-x+1/2, -y+z, -y'
loop_
 _atom_site_type_symbol
 _atom_site_label
 _atom_site_symmetry_multiplicity
 _atom_site_fract_x
 _atom_site_fract_y
 _atom_site_fract_z
 _atom_site_occupancy
  Nb  Nb0  6  0.25000000  0.48611500  0.37117400  1.0
  S  S1  6  0.25000000  0.34626700  0.05700700  1.0
  S  S2  2  0.25000000  0.33333333  0.66666667  1.0
