# generated using pymatgen
data_Nb4SiNi
_symmetry_space_group_name_H-M   P4/mcc
_cell_length_a   4.96940000
_cell_length_b   6.25290300
_cell_length_c   6.25290300
_cell_angle_alpha   90.00000000
_cell_angle_beta   90.00000000
_cell_angle_gamma   90.00000000
_symmetry_Int_Tables_number   124
_chemical_formula_structural   Nb4SiNi
_chemical_formula_sum   'Nb8 Si2 Ni2'
_cell_volume   194.29755648
_cell_formula_units_Z   2
loop_
 _symmetry_equiv_pos_site_id
 _symmetry_equiv_pos_as_xyz
  1  'x, y, z'
  2  '-x, -y, -z'
  3  'x, -z, y'
  4  '-x, z, -y'
  5  'x, -y, -z'
  6  '-x, y, z'
  7  'x, z, -y'
  8  '-x, -z, y'
  9  '-x+1/2, y, -z'
  10  'x+1/2, -y, z'
  11  '-x+1/2, -z, -y'
  12  'x+1/2, z, y'
  13  '-x+1/2, -y, z'
  14  'x+1/2, y, -z'
  15  '-x+1/2, z, y'
  16  'x+1/2, -z, -y'
loop_
 _atom_site_type_symbol
 _atom_site_label
 _atom_site_symmetry_multiplicity
 _atom_site_fract_x
 _atom_site_fract_y
 _atom_site_fract_z
 _atom_site_occupancy
  Nb  Nb0  8  0.00000000  0.15533500  0.33690000  1.0
  Si  Si1  2  0.25000000  0.50000000  0.50000000  1.0
  Ni  Ni2  2  0.25000000  0.00000000  0.00000000  1.0
