# generated using pymatgen
data_Nb5Sb4
_symmetry_space_group_name_H-M   I4/m
_cell_length_a   3.39353000
_cell_length_b   7.57290706
_cell_length_c   7.57290706
_cell_angle_alpha   87.12244680
_cell_angle_beta   77.05255063
_cell_angle_gamma   77.05255061
_symmetry_Int_Tables_number   87
_chemical_formula_structural   Nb5Sb4
_chemical_formula_sum   'Nb5 Sb4'
_cell_volume   184.84527324
_cell_formula_units_Z   1
loop_
 _symmetry_equiv_pos_site_id
 _symmetry_equiv_pos_as_xyz
  1  'x, y, z'
  2  '-x, -y, -z'
  3  'x+y, z, -y'
  4  '-x-y, -z, y'
  5  'x+y+z, -y, -z'
  6  '-x-y-z, y, z'
  7  'x+z, -z, y'
  8  '-x-z, z, -y'
loop_
 _atom_site_type_symbol
 _atom_site_label
 _atom_site_symmetry_multiplicity
 _atom_site_fract_x
 _atom_site_fract_y
 _atom_site_fract_z
 _atom_site_occupancy
  Nb  Nb0  4  0.04618900  0.60945800  0.29816400  1.0
  Nb  Nb1  1  0.00000000  0.00000000  0.00000000  1.0
  Sb  Sb2  4  0.32220100  0.31311900  0.04247900  1.0
