# generated using pymatgen
data_Nb5Sb4
_symmetry_space_group_name_H-M   I4/m
_cell_length_a   3.58550600
_cell_length_b   7.58331765
_cell_length_c   7.58331765
_cell_angle_alpha   86.79615571
_cell_angle_beta   76.32539669
_cell_angle_gamma   76.32539667
_symmetry_Int_Tables_number   87
_chemical_formula_structural   Nb5Sb4
_chemical_formula_sum   'Nb5 Sb4'
_cell_volume   194.66695670
_cell_formula_units_Z   1
loop_
 _symmetry_equiv_pos_site_id
 _symmetry_equiv_pos_as_xyz
  1  'x, y, z'
  2  '-x, -y, -z'
  3  'x+y, z, -y'
  4  '-x-y, -z, y'
  5  'x+y+z, -y, -z'
  6  '-x-y-z, y, z'
  7  'x+z, -z, y'
  8  '-x-z, z, -y'
loop_
 _atom_site_type_symbol
 _atom_site_label
 _atom_site_symmetry_multiplicity
 _atom_site_fract_x
 _atom_site_fract_y
 _atom_site_fract_z
 _atom_site_occupancy
  Nb  Nb0  4  0.31172700  0.06075100  0.31579600  1.0
  Nb  Nb1  1  0.00000000  0.00000000  0.00000000  1.0
  Sb  Sb2  4  0.05314300  0.24013500  0.65357900  1.0
