# generated using pymatgen
data_Nb5Si3
_symmetry_space_group_name_H-M   I4/mcm
_cell_length_a   6.61503400
_cell_length_b   7.59029915
_cell_length_c   6.61503400
_cell_angle_alpha   64.16660262
_cell_angle_beta   90.00000000
_cell_angle_gamma   115.83339738
_symmetry_Int_Tables_number   140
_chemical_formula_structural   Nb5Si3
_chemical_formula_sum   'Nb10 Si6'
_cell_volume   261.57771828
_cell_formula_units_Z   2
loop_
 _symmetry_equiv_pos_site_id
 _symmetry_equiv_pos_as_xyz
  1  'x, y, z'
  2  '-x, -y, -z'
  3  '-z, y, x-y'
  4  'z, -y, -x+y'
  5  '-x+y, y, -y-z'
  6  'x-y, -y, y+z'
  7  'y+z, y, -x'
  8  '-y-z, -y, x'
  9  '-x+1/2, -y, y+z+1/2'
  10  'x+1/2, y, -y-z+1/2'
  11  'z+1/2, -y, x+1/2'
  12  '-z+1/2, y, -x+1/2'
  13  'x-y+1/2, -y, -z+1/2'
  14  '-x+y+1/2, y, z+1/2'
  15  '-y-z+1/2, -y, -x+y+1/2'
  16  'y+z+1/2, y, x-y+1/2'
loop_
 _atom_site_type_symbol
 _atom_site_label
 _atom_site_symmetry_multiplicity
 _atom_site_fract_x
 _atom_site_fract_y
 _atom_site_fract_z
 _atom_site_occupancy
  Nb  Nb0  8  0.01714700  0.70180700  0.48285300  1.0
  Nb  Nb1  2  0.00000000  0.00000000  0.00000000  1.0
  Si  Si2  4  0.12910000  0.00000000  0.62910000  1.0
  Si  Si3  2  0.25000000  0.50000000  0.75000000  1.0
