# generated using pymatgen
data_Nb5Te4
_symmetry_space_group_name_H-M   I4/m
_cell_length_a   3.68959800
_cell_length_b   7.60670240
_cell_length_c   7.60670240
_cell_angle_alpha   86.62806951
_cell_angle_beta   75.96451214
_cell_angle_gamma   75.96451216
_symmetry_Int_Tables_number   87
_chemical_formula_structural   Nb5Te4
_chemical_formula_sum   'Nb5 Te4'
_cell_volume   200.93048206
_cell_formula_units_Z   1
loop_
 _symmetry_equiv_pos_site_id
 _symmetry_equiv_pos_as_xyz
  1  'x, y, z'
  2  '-x, -y, -z'
  3  'x+y, z, -y'
  4  '-x-y, -z, y'
  5  'x+y+z, -y, -z'
  6  '-x-y-z, y, z'
  7  'x+z, -z, y'
  8  '-x-z, z, -y'
loop_
 _atom_site_type_symbol
 _atom_site_label
 _atom_site_symmetry_multiplicity
 _atom_site_fract_x
 _atom_site_fract_y
 _atom_site_fract_z
 _atom_site_occupancy
  Nb  Nb0  4  0.31118900  0.06890300  0.30871900  1.0
  Nb  Nb1  1  0.00000000  0.00000000  0.00000000  1.0
  Te  Te2  4  0.06049100  0.22452200  0.65449600  1.0
