# generated using pymatgen
data_Nb1Te0.8
_symmetry_space_group_name_H-M   P-6m2
_cell_length_a   3.69421100
_cell_length_b   3.70297400
_cell_length_c   3.70297439
_cell_angle_alpha   60.00000345
_cell_angle_beta   90.00000000
_cell_angle_gamma   90.00000000
_symmetry_Int_Tables_number   187
_chemical_formula_structural   Nb1Te0.8
_chemical_formula_sum   'Nb1 Te0.8'
_cell_volume   43.86859397
_cell_formula_units_Z   1
loop_
 _symmetry_equiv_pos_site_id
 _symmetry_equiv_pos_as_xyz
  1  'x, y, z'
  2  '-x, z, -y-z'
  3  'x, -y-z, y'
  4  '-x, y, z'
  5  'x, z, -y-z'
  6  '-x, -y-z, y'
  7  '-x, y, -y-z'
  8  'x, z, y'
  9  '-x, -y-z, z'
  10  'x, y, -y-z'
  11  '-x, z, y'
  12  'x, -y-z, z'
loop_
 _atom_site_type_symbol
 _atom_site_label
 _atom_site_symmetry_multiplicity
 _atom_site_fract_x
 _atom_site_fract_y
 _atom_site_fract_z
 _atom_site_occupancy
  Nb  Nb0  1  0.50000000  0.00000000  0.00000000  1.0
  Te  Te1  1  0.00000000  0.66666667  0.66666667  0.8
