# generated using pymatgen
data_Nd3.88Th0.12Ni4O12
_symmetry_space_group_name_H-M   Pnma
_cell_length_a   5.43176200
_cell_length_b   5.49584900
_cell_length_c   7.70942900
_cell_angle_alpha   90.00000000
_cell_angle_beta   90.00000000
_cell_angle_gamma   90.00000000
_symmetry_Int_Tables_number   62
_chemical_formula_structural   Nd3.88Th0.12Ni4O12
_chemical_formula_sum   'Nd3.88 Th0.12 Ni4 O12'
_cell_volume   230.14298278
_cell_formula_units_Z   1
loop_
 _symmetry_equiv_pos_site_id
 _symmetry_equiv_pos_as_xyz
  1  'x, y, z'
  2  '-x, -y, -z'
  3  'x+1/2, -y+1/2, -z'
  4  '-x+1/2, y+1/2, z'
  5  '-x+1/2, y+1/2, -z+1/2'
  6  'x+1/2, -y+1/2, z+1/2'
  7  '-x, -y, z+1/2'
  8  'x, y, -z+1/2'
loop_
 _atom_site_type_symbol
 _atom_site_label
 _atom_site_symmetry_multiplicity
 _atom_site_fract_x
 _atom_site_fract_y
 _atom_site_fract_z
 _atom_site_occupancy
  Nd  Nd0  4  0.01095500  0.95255000  0.75000000  0.97
  Th  Th1  4  0.01095500  0.95255000  0.75000000  0.03
  Ni  Ni2  4  0.00000000  0.50000000  0.00000000  1.0
  O  O3  8  0.21378500  0.21244400  0.54299900  1.0
  O  O4  4  0.07897900  0.48564900  0.25000000  1.0
