# generated using pymatgen
data_Pr0.2Nd0.8Sb12Os4
_symmetry_space_group_name_H-M   Im-3
_cell_length_a   8.16778003
_cell_length_b   8.16778003
_cell_length_c   8.16778003
_cell_angle_alpha   109.47122063
_cell_angle_beta   109.47122064
_cell_angle_gamma   109.47122064
_symmetry_Int_Tables_number   204
_chemical_formula_structural   Pr0.2Nd0.8Sb12Os4
_chemical_formula_sum   'Pr0.2 Nd0.8 Sb12 Os4'
_cell_volume   419.45966765
_cell_formula_units_Z   1
loop_
 _symmetry_equiv_pos_site_id
 _symmetry_equiv_pos_as_xyz
  1  'x, y, z'
  2  '-x, -y, -z'
  3  'y-z, x-z, -z'
  4  '-y+z, -x+z, z'
  5  '-y+z, -y, x-y'
  6  'y-z, y, -x+y'
  7  '-x, -x+z, -x+y'
  8  'x, x-z, x-y'
  9  '-y, x-y, -y+z'
  10  'y, -x+y, y-z'
  11  '-x+z, -x+y, -x'
  12  'x-z, x-y, x'
  13  'y, z, x'
  14  '-y, -z, -x'
  15  'x-z, -z, y-z'
  16  '-x+z, z, -y+z'
  17  '-x+y, -x, -x+z'
  18  'x-y, x, x-z'
  19  'x-y, -y+z, -y'
  20  '-x+y, y-z, y'
  21  '-z, y-z, x-z'
  22  'z, -y+z, -x+z'
  23  'z, x, y'
  24  '-z, -x, -y'
loop_
 _atom_site_type_symbol
 _atom_site_label
 _atom_site_symmetry_multiplicity
 _atom_site_fract_x
 _atom_site_fract_y
 _atom_site_fract_z
 _atom_site_occupancy
  Nd  Nd0  1  0.00000000  0.00000000  0.00000000  0.8
  Pr  Pr1  1  0.00000000  0.00000000  0.00000000  0.2
  Sb  Sb2  12  0.15655200  0.49557000  0.33901800  1.0
  Os  Os3  4  0.00000000  0.00000000  0.50000000  1.0
