# generated using pymatgen
data_Nd(SiPt)2
_symmetry_space_group_name_H-M   P4/nmm
_cell_length_a   4.26867300
_cell_length_b   4.26867300
_cell_length_c   9.88423300
_cell_angle_alpha   90.00000000
_cell_angle_beta   90.00000000
_cell_angle_gamma   90.00000000
_symmetry_Int_Tables_number   129
_chemical_formula_structural   Nd(SiPt)2
_chemical_formula_sum   'Nd2 Si4 Pt4'
_cell_volume   180.10623541
_cell_formula_units_Z   2
loop_
 _symmetry_equiv_pos_site_id
 _symmetry_equiv_pos_as_xyz
  1  'x, y, z'
  2  '-y+1/2, x+1/2, z'
  3  '-x, -y, z'
  4  'y+1/2, -x+1/2, z'
  5  'x+1/2, -y+1/2, -z'
  6  '-y, -x, -z'
  7  '-x+1/2, y+1/2, -z'
  8  'y, x, -z'
  9  '-x+1/2, -y+1/2, -z'
  10  'y, -x, -z'
  11  'x+1/2, y+1/2, -z'
  12  '-y, x, -z'
  13  '-x, y, z'
  14  'y+1/2, x+1/2, z'
  15  'x, -y, z'
  16  '-y+1/2, -x+1/2, z'
loop_
 _atom_site_type_symbol
 _atom_site_label
 _atom_site_symmetry_multiplicity
 _atom_site_fract_x
 _atom_site_fract_y
 _atom_site_fract_z
 _atom_site_occupancy
  Nd  Nd0  2  0.00000000  0.50000000  0.25506200  1.0
  Si  Si1  2  0.00000000  0.00000000  0.50000000  1.0
  Si  Si2  2  0.00000000  0.50000000  0.86702900  1.0
  Pt  Pt3  2  0.00000000  0.00000000  0.00000000  1.0
  Pt  Pt4  2  0.00000000  0.50000000  0.62065800  1.0
