# generated using pymatgen
data_NdSiPt
_symmetry_space_group_name_H-M   I4_1md
_cell_length_a   4.22186200
_cell_length_b   4.22186200
_cell_length_c   7.83807203
_cell_angle_alpha   105.62366603
_cell_angle_beta   105.62366604
_cell_angle_gamma   89.99999999
_symmetry_Int_Tables_number   109
_chemical_formula_structural   NdSiPt
_chemical_formula_sum   'Nd2 Si2 Pt2'
_cell_volume   129.17668229
_cell_formula_units_Z   2
loop_
 _symmetry_equiv_pos_site_id
 _symmetry_equiv_pos_as_xyz
  1  'x, y, z'
  2  '-y+z+3/4, x+1/4, z+1/2'
  3  '-x+z, -y+z, z'
  4  'y+3/4, -x+z+1/4, z+1/2'
  5  '-x+z, y, z'
  6  'y+3/4, x+1/4, z+1/2'
  7  'x, -y+z, z'
  8  '-y+z+3/4, -x+z+1/4, z+1/2'
loop_
 _atom_site_type_symbol
 _atom_site_label
 _atom_site_symmetry_multiplicity
 _atom_site_fract_x
 _atom_site_fract_y
 _atom_site_fract_z
 _atom_site_occupancy
  Nd  Nd0  2  0.74907600  0.24907600  0.49815200  1.0
  Si  Si1  2  0.16884800  0.66884800  0.33769600  1.0
  Pt  Pt2  2  0.33607600  0.83607600  0.67215200  1.0
