# generated using pymatgen
data_Nd2NiO4
_symmetry_space_group_name_H-M   Immm
_cell_length_a   3.95989200
_cell_length_b   4.06523400
_cell_length_c   6.72450786
_cell_angle_alpha   107.59399581
_cell_angle_beta   107.12379906
_cell_angle_gamma   90.00000000
_symmetry_Int_Tables_number   71
_chemical_formula_structural   Nd2NiO4
_chemical_formula_sum   'Nd2 Ni1 O4'
_cell_volume   98.14073960
_cell_formula_units_Z   1
loop_
 _symmetry_equiv_pos_site_id
 _symmetry_equiv_pos_as_xyz
  1  'x, y, z'
  2  '-x, -y, -z'
  3  '-x+z, -y+z, z'
  4  'x-z, y-z, -z'
  5  'x-z, -y, -z'
  6  '-x+z, y, z'
  7  '-x, y-z, -z'
  8  'x, -y+z, z'
loop_
 _atom_site_type_symbol
 _atom_site_label
 _atom_site_symmetry_multiplicity
 _atom_site_fract_x
 _atom_site_fract_y
 _atom_site_fract_z
 _atom_site_occupancy
  Nd  Nd0  2  0.35017000  0.35017000  0.70034000  1.0
  Ni  Ni1  1  0.00000000  0.00000000  0.00000000  1.0
  O  O2  2  0.25180900  0.75180900  0.50361800  1.0
  O  O3  1  0.00000000  0.50000000  0.00000000  1.0
  O  O4  1  0.50000000  0.00000000  0.00000000  1.0
