# generated using pymatgen
data_Nd2NiO4
_symmetry_space_group_name_H-M   Cmce
_cell_length_a   5.42217600
_cell_length_b   5.68211600
_cell_length_c   6.66813480
_cell_angle_alpha   90.00000000
_cell_angle_beta   113.98977870
_cell_angle_gamma   90.00000000
_symmetry_Int_Tables_number   64
_chemical_formula_structural   Nd2NiO4
_chemical_formula_sum   'Nd4 Ni2 O8'
_cell_volume   187.69500947
_cell_formula_units_Z   2
loop_
 _symmetry_equiv_pos_site_id
 _symmetry_equiv_pos_as_xyz
  1  'x, y, z'
  2  '-x, -y, -z'
  3  '-x+1/2, y+1/2, -z'
  4  'x+1/2, -y+1/2, z'
  5  'x-z, -y, -z'
  6  '-x+z, y, z'
  7  '-x+z+1/2, -y+1/2, z'
  8  'x-z+1/2, y+1/2, -z'
loop_
 _atom_site_type_symbol
 _atom_site_label
 _atom_site_symmetry_multiplicity
 _atom_site_fract_x
 _atom_site_fract_y
 _atom_site_fract_z
 _atom_site_occupancy
  Nd  Nd0  4  0.13695200  0.51737300  0.27390400  1.0
  Ni  Ni1  2  0.00000000  0.00000000  0.00000000  1.0
  O  O2  4  0.17973500  0.92915400  0.35947000  1.0
  O  O3  4  0.22945700  0.75000000  0.95891400  1.0
