# generated using pymatgen
data_Nd2Si5Rh3
_symmetry_space_group_name_H-M   Ibam
_cell_length_a   5.87786400
_cell_length_b   8.25631383
_cell_length_c   8.25631383
_cell_angle_alpha   74.49408710
_cell_angle_beta   69.14760006
_cell_angle_gamma   69.14760007
_symmetry_Int_Tables_number   72
_chemical_formula_structural   Nd2Si5Rh3
_chemical_formula_sum   'Nd4 Si10 Rh6'
_cell_volume   345.33906444
_cell_formula_units_Z   2
loop_
 _symmetry_equiv_pos_site_id
 _symmetry_equiv_pos_as_xyz
  1  'x, y, z'
  2  '-x, -y, -z'
  3  'x+y+z, -y, -z'
  4  '-x-y-z, y, z'
  5  '-x+1/2, -z, -y'
  6  'x+1/2, z, y'
  7  '-x-y-z+1/2, z, y'
  8  'x+y+z+1/2, -z, -y'
loop_
 _atom_site_type_symbol
 _atom_site_label
 _atom_site_symmetry_multiplicity
 _atom_site_fract_x
 _atom_site_fract_y
 _atom_site_fract_z
 _atom_site_occupancy
  Nd  Nd0  4  0.13126000  0.10178100  0.63569900  1.0
  Si  Si1  4  0.02442700  0.72557300  0.72557300  1.0
  Si  Si2  4  0.10691200  0.54570500  0.24047100  1.0
  Si  Si3  2  0.25000000  0.00000000  0.00000000  1.0
  Rh  Rh4  4  0.13812200  0.75200700  0.97174900  1.0
  Rh  Rh5  2  0.25000000  0.50000000  0.50000000  1.0
