# generated using pymatgen
data_Nd2S3
_symmetry_space_group_name_H-M   Pnma
_cell_length_a   4.05800200
_cell_length_b   7.51306000
_cell_length_c   15.68326400
_cell_angle_alpha   90.00000000
_cell_angle_beta   90.00000000
_cell_angle_gamma   90.00000000
_symmetry_Int_Tables_number   62
_chemical_formula_structural   Nd2S3
_chemical_formula_sum   'Nd8 S12'
_cell_volume   478.15154897
_cell_formula_units_Z   4
loop_
 _symmetry_equiv_pos_site_id
 _symmetry_equiv_pos_as_xyz
  1  'x, y, z'
  2  '-x, -y, -z'
  3  '-x, -y+1/2, z+1/2'
  4  'x, y+1/2, -z+1/2'
  5  '-x+1/2, y+1/2, -z+1/2'
  6  'x+1/2, -y+1/2, z+1/2'
  7  'x+1/2, -y, -z'
  8  '-x+1/2, y, z'
loop_
 _atom_site_type_symbol
 _atom_site_label
 _atom_site_symmetry_multiplicity
 _atom_site_fract_x
 _atom_site_fract_y
 _atom_site_fract_z
 _atom_site_occupancy
  Nd  Nd0  4  0.25000000  0.14488400  0.79563200  1.0
  Nd  Nd1  4  0.25000000  0.26469700  0.04401700  1.0
  S  S2  4  0.25000000  0.00963500  0.60911800  1.0
  S  S3  4  0.25000000  0.14555500  0.21888000  1.0
  S  S4  4  0.25000000  0.37403200  0.43255300  1.0
