# generated using pymatgen
data_Ta4Ni0.32S8
_symmetry_space_group_name_H-M   P-3m1
_cell_length_a   3.36907000
_cell_length_b   3.36906982
_cell_length_c   24.42597700
_cell_angle_alpha   90.00000000
_cell_angle_beta   90.00000000
_cell_angle_gamma   120.00000176
_symmetry_Int_Tables_number   164
_chemical_formula_structural   Ta4Ni0.32S8
_chemical_formula_sum   'Ta4 Ni0.32 S8'
_cell_volume   240.10577935
_cell_formula_units_Z   1
loop_
 _symmetry_equiv_pos_site_id
 _symmetry_equiv_pos_as_xyz
  1  'x, y, z'
  2  '-x, -y, -z'
  3  '-y, x-y, z'
  4  'y, -x+y, -z'
  5  '-x+y, -x, z'
  6  'x-y, x, -z'
  7  'y, x, -z'
  8  '-y, -x, z'
  9  'x-y, -y, -z'
  10  '-x+y, y, z'
  11  '-x, -x+y, -z'
  12  'x, x-y, z'
loop_
 _atom_site_type_symbol
 _atom_site_label
 _atom_site_symmetry_multiplicity
 _atom_site_fract_x
 _atom_site_fract_y
 _atom_site_fract_z
 _atom_site_occupancy
  Ta  Ta0  2  0.00000000  0.00000000  0.12399900  1.0
  Ta  Ta1  2  0.00000000  0.00000000  0.37512900  1.0
  Ni  Ni2  1  0.00000000  0.00000000  0.00000000
  0.31999999999999995
  S  S3  2  0.33333333  0.66666667  0.05910300  1.0
  S  S4  2  0.33333333  0.66666667  0.18751400  1.0
  S  S5  2  0.33333333  0.66666667  0.56152600  1.0
  S  S6  2  0.33333333  0.66666667  0.68847100  1.0
