# generated using pymatgen
data_Zr2VNi3
_symmetry_space_group_name_H-M   R-3m
_cell_length_a   4.93524362
_cell_length_b   4.93524362
_cell_length_c   4.93524365
_cell_angle_alpha   61.26899475
_cell_angle_beta   61.26899475
_cell_angle_gamma   61.26900505
_symmetry_Int_Tables_number   166
_chemical_formula_structural   Zr2VNi3
_chemical_formula_sum   'Zr2 V1 Ni3'
_cell_volume   87.42354342
_cell_formula_units_Z   1
loop_
 _symmetry_equiv_pos_site_id
 _symmetry_equiv_pos_as_xyz
  1  'x, y, z'
  2  '-x, -y, -z'
  3  'z, x, y'
  4  '-z, -x, -y'
  5  'y, z, x'
  6  '-y, -z, -x'
  7  '-z, -y, -x'
  8  'z, y, x'
  9  '-y, -x, -z'
  10  'y, x, z'
  11  '-x, -z, -y'
  12  'x, z, y'
loop_
 _atom_site_type_symbol
 _atom_site_label
 _atom_site_symmetry_multiplicity
 _atom_site_fract_x
 _atom_site_fract_y
 _atom_site_fract_z
 _atom_site_occupancy
  Zr  Zr0  2  0.37020400  0.37020400  0.37020400  1.0
  V  V1  1  0.00000000  0.00000000  0.00000000  1.0
  Ni  Ni2  3  0.00000000  0.00000000  0.50000000  1.0
