# generated using pymatgen
data_Pr14Ni4.66666667
_symmetry_space_group_name_H-M   P6_3mc
_cell_length_a   6.39636800
_cell_length_b   9.95601538
_cell_length_c   9.95601538
_cell_angle_alpha   119.96784393
_cell_angle_beta   90.00000000
_cell_angle_gamma   90.00000000
_symmetry_Int_Tables_number   186
_chemical_formula_structural   Pr14Ni4.66666667
_chemical_formula_sum   'Pr14 Ni4.66666667'
_cell_volume   549.25728109
_cell_formula_units_Z   1
loop_
 _symmetry_equiv_pos_site_id
 _symmetry_equiv_pos_as_xyz
  1  'x, y, z'
  2  'x+1/2, y-z, y'
  3  'x, -z, y-z'
  4  'x+1/2, -y, -z'
  5  'x, -y+z, -y'
  6  'x+1/2, z, -y+z'
  7  'x+1/2, z, y'
  8  'x, y, y-z'
  9  'x+1/2, y-z, -z'
  10  'x, -z, -y'
  11  'x+1/2, -y, -y+z'
  12  'x, -y+z, z'
loop_
 _atom_site_type_symbol
 _atom_site_label
 _atom_site_symmetry_multiplicity
 _atom_site_fract_x
 _atom_site_fract_y
 _atom_site_fract_z
 _atom_site_occupancy
  Pr  Pr0  6  0.25034100  0.12534500  0.25069200  1.0
  Pr  Pr1  6  0.43581300  0.53914800  0.46084100  1.0
  Pr  Pr2  2  0.46414500  0.33333333  0.66666667  1.0
  Ni  Ni3  6  0.19009200  0.37643400  0.18821700  0.7777777777833333
