# generated using pymatgen
data_NiP
_symmetry_space_group_name_H-M   Cmc2_1
_cell_length_a   4.96948800
_cell_length_b   5.87888112
_cell_length_c   5.87888112
_cell_angle_alpha   119.60837759
_cell_angle_beta   90.00000000
_cell_angle_gamma   90.00000000
_symmetry_Int_Tables_number   36
_chemical_formula_structural   NiP
_chemical_formula_sum   'Ni6 P6'
_cell_volume   149.32481198
_cell_formula_units_Z   6
loop_
 _symmetry_equiv_pos_site_id
 _symmetry_equiv_pos_as_xyz
  1  'x, y, z'
  2  'x+1/2, -y, -z'
  3  'x, z, y'
  4  'x+1/2, -z, -y'
loop_
 _atom_site_type_symbol
 _atom_site_label
 _atom_site_symmetry_multiplicity
 _atom_site_fract_x
 _atom_site_fract_y
 _atom_site_fract_z
 _atom_site_occupancy
  Ni  Ni0  4  0.11451800  0.29726500  0.59049900  1.0
  Ni  Ni1  2  0.14266700  0.05374900  0.05374900  1.0
  P  P2  4  0.44905900  0.02527200  0.34684700  1.0
  P  P3  2  0.30147900  0.68830600  0.68830600  1.0
