# generated using pymatgen
data_Pr2NiO4
_symmetry_space_group_name_H-M   Cmce
_cell_length_a   5.44626400
_cell_length_b   5.69797700
_cell_length_c   6.73203750
_cell_angle_alpha   90.00000000
_cell_angle_beta   113.86001084
_cell_angle_gamma   90.00000000
_symmetry_Int_Tables_number   64
_chemical_formula_structural   Pr2NiO4
_chemical_formula_sum   'Pr4 Ni2 O8'
_cell_volume   191.05875791
_cell_formula_units_Z   2
loop_
 _symmetry_equiv_pos_site_id
 _symmetry_equiv_pos_as_xyz
  1  'x, y, z'
  2  '-x, -y, -z'
  3  '-x+1/2, y+1/2, -z'
  4  'x+1/2, -y+1/2, z'
  5  'x-z, -y, -z'
  6  '-x+z, y, z'
  7  '-x+z+1/2, -y+1/2, z'
  8  'x-z+1/2, y+1/2, -z'
loop_
 _atom_site_type_symbol
 _atom_site_label
 _atom_site_symmetry_multiplicity
 _atom_site_fract_x
 _atom_site_fract_y
 _atom_site_fract_z
 _atom_site_occupancy
  Pr  Pr0  4  0.13692700  0.51638300  0.27385400  1.0
  Ni  Ni1  2  0.00000000  0.00000000  0.00000000  1.0
  O  O2  4  0.17891900  0.93154200  0.35783800  1.0
  O  O3  4  0.23028300  0.75000000  0.96056600  1.0
