# generated using pymatgen
data_Pr3Ni
_symmetry_space_group_name_H-M   Pnma
_cell_length_a   6.56358400
_cell_length_b   7.08408700
_cell_length_c   10.08851400
_cell_angle_alpha   90.00000000
_cell_angle_beta   90.00000000
_cell_angle_gamma   90.00000000
_symmetry_Int_Tables_number   62
_chemical_formula_structural   Pr3Ni
_chemical_formula_sum   'Pr12 Ni4'
_cell_volume   469.08563634
_cell_formula_units_Z   4
loop_
 _symmetry_equiv_pos_site_id
 _symmetry_equiv_pos_as_xyz
  1  'x, y, z'
  2  '-x, -y, -z'
  3  'x+1/2, -y+1/2, -z'
  4  '-x+1/2, y+1/2, z'
  5  '-x+1/2, y+1/2, -z+1/2'
  6  'x+1/2, -y+1/2, z+1/2'
  7  '-x, -y, z+1/2'
  8  'x, y, -z+1/2'
loop_
 _atom_site_type_symbol
 _atom_site_label
 _atom_site_symmetry_multiplicity
 _atom_site_fract_x
 _atom_site_fract_y
 _atom_site_fract_z
 _atom_site_occupancy
  Pr  Pr0  8  0.17367200  0.17513800  0.06632500  1.0
  Pr  Pr1  4  0.14352500  0.46083300  0.75000000  1.0
  Ni  Ni2  4  0.06621600  0.89102600  0.25000000  1.0
