# generated using pymatgen
data_NiP
_symmetry_space_group_name_H-M   Pnma
_cell_length_a   4.93418100
_cell_length_b   5.92782600
_cell_length_c   17.04046700
_cell_angle_alpha   90.00000000
_cell_angle_beta   90.00000000
_cell_angle_gamma   90.00000000
_symmetry_Int_Tables_number   62
_chemical_formula_structural   NiP
_chemical_formula_sum   'Ni20 P20'
_cell_volume   498.41604707
_cell_formula_units_Z   20
loop_
 _symmetry_equiv_pos_site_id
 _symmetry_equiv_pos_as_xyz
  1  'x, y, z'
  2  '-x, -y, -z'
  3  '-x+1/2, y+1/2, -z'
  4  'x+1/2, -y+1/2, z'
  5  'x+1/2, -y+1/2, -z+1/2'
  6  '-x+1/2, y+1/2, z+1/2'
  7  '-x, -y, z+1/2'
  8  'x, y, -z+1/2'
loop_
 _atom_site_type_symbol
 _atom_site_label
 _atom_site_symmetry_multiplicity
 _atom_site_fract_x
 _atom_site_fract_y
 _atom_site_fract_z
 _atom_site_occupancy
  Ni  Ni0  8  0.01717000  0.80803300  0.04073400  1.0
  Ni  Ni1  8  0.03029400  0.30602000  0.16301000  1.0
  Ni  Ni2  4  0.00158500  0.69854100  0.25000000  1.0
  P  P3  8  0.17121200  0.44343000  0.04531800  1.0
  P  P4  8  0.19768500  0.93715100  0.15340400  1.0
  P  P5  4  0.16093000  0.93715500  0.75000000  1.0
