# generated using pymatgen
data_NiP
_symmetry_space_group_name_H-M   Cmc2_1
_cell_length_a   4.90826800
_cell_length_b   5.96601800
_cell_length_c   12.38861980
_cell_angle_alpha   103.93294866
_cell_angle_beta   90.00000000
_cell_angle_gamma   90.00000000
_symmetry_Int_Tables_number   36
_chemical_formula_structural   NiP
_chemical_formula_sum   'Ni14 P14'
_cell_volume   352.10020134
_cell_formula_units_Z   14
loop_
 _symmetry_equiv_pos_site_id
 _symmetry_equiv_pos_as_xyz
  1  'x, y, z'
  2  'x+1/2, -y, -z'
  3  'x, y-z, -z'
  4  'x+1/2, -y+z, z'
loop_
 _atom_site_type_symbol
 _atom_site_label
 _atom_site_symmetry_multiplicity
 _atom_site_fract_x
 _atom_site_fract_y
 _atom_site_fract_z
 _atom_site_occupancy
  Ni  Ni0  4  0.07521100  0.38417300  0.87512900  1.0
  Ni  Ni1  4  0.08865600  0.09229900  0.29729000  1.0
  Ni  Ni2  4  0.12157100  0.35309000  0.58736700  1.0
  Ni  Ni3  2  0.10125600  0.05128000  0.00000000  1.0
  P  P4  4  0.27729900  0.40368300  0.42204400  1.0
  P  P5  4  0.40364700  0.11479900  0.86245000  1.0
  P  P6  4  0.43241200  0.54683500  0.70966200  1.0
  P  P7  2  0.26485200  0.68661100  0.00000000  1.0
