# generated using pymatgen
data_SmNi
_symmetry_space_group_name_H-M   Cmcm
_cell_length_a   3.75734200
_cell_length_b   4.30235400
_cell_length_c   5.54309865
_cell_angle_alpha   90.00000000
_cell_angle_beta   109.81113231
_cell_angle_gamma   90.00000000
_symmetry_Int_Tables_number   63
_chemical_formula_structural   SmNi
_chemical_formula_sum   'Sm2 Ni2'
_cell_volume   84.30312621
_cell_formula_units_Z   2
loop_
 _symmetry_equiv_pos_site_id
 _symmetry_equiv_pos_as_xyz
  1  'x, y, z'
  2  '-x, -y, -z'
  3  '-x, y+1/2, -z'
  4  'x, -y+1/2, z'
  5  'x-z, -y, -z'
  6  '-x+z, y, z'
  7  '-x+z, -y+1/2, z'
  8  'x-z, y+1/2, -z'
loop_
 _atom_site_type_symbol
 _atom_site_label
 _atom_site_symmetry_multiplicity
 _atom_site_fract_x
 _atom_site_fract_y
 _atom_site_fract_z
 _atom_site_occupancy
  Sm  Sm0  2  0.13858700  0.25000000  0.27717400  1.0
  Ni  Ni1  2  0.42713800  0.25000000  0.85427600  1.0
