# generated using pymatgen
data_NiTe
_symmetry_space_group_name_H-M   R-3m
_cell_length_a   3.85673041
_cell_length_b   3.85673041
_cell_length_c   7.05811789
_cell_angle_alpha   74.14448865
_cell_angle_beta   74.14448865
_cell_angle_gamma   59.99999294
_symmetry_Int_Tables_number   166
_chemical_formula_structural   NiTe
_chemical_formula_sum   'Ni2 Te2'
_cell_volume   86.27669562
_cell_formula_units_Z   2
loop_
 _symmetry_equiv_pos_site_id
 _symmetry_equiv_pos_as_xyz
  1  'x, y, z'
  2  '-x, -y, -z'
  3  '-x-y-z, x, z'
  4  'x+y+z, -x, -z'
  5  'y, -x-y-z, z'
  6  '-y, x+y+z, -z'
  7  '-x, x+y+z, -z'
  8  'x, -x-y-z, z'
  9  'x+y+z, -y, -z'
  10  '-x-y-z, y, z'
  11  '-y, -x, -z'
  12  'y, x, z'
loop_
 _atom_site_type_symbol
 _atom_site_label
 _atom_site_symmetry_multiplicity
 _atom_site_fract_x
 _atom_site_fract_y
 _atom_site_fract_z
 _atom_site_occupancy
  Ni  Ni0  2  0.13165400  0.13165400  0.60503800  1.0
  Te  Te1  2  0.25821200  0.25821200  0.22536400  1.0
