# generated using pymatgen
data_TiNi
_symmetry_space_group_name_H-M   P2_1/m
_cell_length_a   2.91546100
_cell_length_b   4.05501000
_cell_length_c   4.75410703
_cell_angle_alpha   90.00000000
_cell_angle_beta   100.93193708
_cell_angle_gamma   90.00000000
_symmetry_Int_Tables_number   11
_chemical_formula_structural   TiNi
_chemical_formula_sum   'Ti2 Ni2'
_cell_volume   55.18418863
_cell_formula_units_Z   2
loop_
 _symmetry_equiv_pos_site_id
 _symmetry_equiv_pos_as_xyz
  1  'x, y, z'
  2  '-x, -y, -z'
  3  '-x, y+1/2, -z'
  4  'x, -y+1/2, z'
loop_
 _atom_site_type_symbol
 _atom_site_label
 _atom_site_symmetry_multiplicity
 _atom_site_fract_x
 _atom_site_fract_y
 _atom_site_fract_z
 _atom_site_occupancy
  Ti  Ti0  2  0.39551700  0.75000000  0.71534000  1.0
  Ni  Ni1  2  0.05665100  0.75000000  0.17197500  1.0
