# generated using pymatgen
data_TiNi
_symmetry_space_group_name_H-M   P31m
_cell_length_a   5.39742000
_cell_length_b   7.24654200
_cell_length_c   7.24654160
_cell_angle_alpha   120.00000182
_cell_angle_beta   90.00000000
_cell_angle_gamma   90.00000000
_symmetry_Int_Tables_number   157
_chemical_formula_structural   TiNi
_chemical_formula_sum   'Ti9 Ni9'
_cell_volume   245.45870638
_cell_formula_units_Z   9
loop_
 _symmetry_equiv_pos_site_id
 _symmetry_equiv_pos_as_xyz
  1  'x, y, z'
  2  'x, -y+z, -y'
  3  'x, -z, y-z'
  4  'x, y-z, -z'
  5  'x, z, y'
  6  'x, -y, -y+z'
loop_
 _atom_site_type_symbol
 _atom_site_label
 _atom_site_symmetry_multiplicity
 _atom_site_fract_x
 _atom_site_fract_y
 _atom_site_fract_z
 _atom_site_occupancy
  Ti  Ti0  3  0.36451900  0.00000000  0.68523100  1.0
  Ti  Ti1  3  0.66695500  0.00000000  0.34573400  1.0
  Ti  Ti2  2  0.98190700  0.33333333  0.66666667  1.0
  Ti  Ti3  1  0.06425800  0.00000000  0.00000000  1.0
  Ni  Ni4  3  0.15936200  0.00000000  0.35958000  1.0
  Ni  Ni5  3  0.88083600  0.00000000  0.68781000  1.0
  Ni  Ni6  2  0.44199000  0.33333333  0.66666667  1.0
  Ni  Ni7  1  0.61555800  0.00000000  0.00000000  1.0
