# generated using pymatgen
data_TiNi
_symmetry_space_group_name_H-M   I4/mmm
_cell_length_a   6.15804600
_cell_length_b   6.15804600
_cell_length_c   7.22658652
_cell_angle_alpha   115.21833334
_cell_angle_beta   115.21833335
_cell_angle_gamma   89.99999999
_symmetry_Int_Tables_number   139
_chemical_formula_structural   TiNi
_chemical_formula_sum   'Ti8 Ni8'
_cell_volume   218.70825610
_cell_formula_units_Z   8
loop_
 _symmetry_equiv_pos_site_id
 _symmetry_equiv_pos_as_xyz
  1  'x, y, z'
  2  '-x, -y, -z'
  3  '-y+z, x, z'
  4  'y-z, -x, -z'
  5  '-x+z, -y+z, z'
  6  'x-z, y-z, -z'
  7  'y, -x+z, z'
  8  '-y, x-z, -z'
  9  'x-z, -y, -z'
  10  '-x+z, y, z'
  11  '-y, -x, -z'
  12  'y, x, z'
  13  '-x, y-z, -z'
  14  'x, -y+z, z'
  15  'y-z, x-z, -z'
  16  '-y+z, -x+z, z'
loop_
 _atom_site_type_symbol
 _atom_site_label
 _atom_site_symmetry_multiplicity
 _atom_site_fract_x
 _atom_site_fract_y
 _atom_site_fract_z
 _atom_site_occupancy
  Ti  Ti0  2  0.00000000  0.50000000  0.00000000  1.0
  Ti  Ti1  2  0.25000000  0.75000000  0.50000000  1.0
  Ti  Ti2  2  0.27184000  0.27184000  0.54368000  1.0
  Ti  Ti3  1  0.00000000  0.00000000  0.00000000  1.0
  Ti  Ti4  1  0.50000000  0.50000000  0.00000000  1.0
  Ni  Ni5  8  0.09468400  0.09468400  0.74021200  1.0
