# generated using pymatgen
data_TiNi
_symmetry_space_group_name_H-M   P-3
_cell_length_a   5.31869700
_cell_length_b   7.27809000
_cell_length_c   7.27808928
_cell_angle_alpha   120.00000327
_cell_angle_beta   90.00000000
_cell_angle_gamma   90.00000000
_symmetry_Int_Tables_number   147
_chemical_formula_structural   TiNi
_chemical_formula_sum   'Ti9 Ni9'
_cell_volume   243.98923629
_cell_formula_units_Z   9
loop_
 _symmetry_equiv_pos_site_id
 _symmetry_equiv_pos_as_xyz
  1  'x, y, z'
  2  '-x, -y, -z'
  3  'x, -y+z, -y'
  4  '-x, y-z, y'
  5  'x, -z, y-z'
  6  '-x, z, -y+z'
loop_
 _atom_site_type_symbol
 _atom_site_label
 _atom_site_symmetry_multiplicity
 _atom_site_fract_x
 _atom_site_fract_y
 _atom_site_fract_z
 _atom_site_occupancy
  Ti  Ti0  6  0.34601500  0.01307900  0.66912400  1.0
  Ti  Ti1  2  0.04409600  0.33333333  0.66666667  1.0
  Ti  Ti2  1  0.00000000  0.00000000  0.00000000  1.0
  Ni  Ni3  6  0.14099300  0.34005100  0.02619100  1.0
  Ni  Ni4  2  0.41370900  0.66666667  0.33333333  1.0
  Ni  Ni5  1  0.50000000  0.00000000  0.00000000  1.0
