# generated using pymatgen
data_TiNi
_symmetry_space_group_name_H-M   P6mm
_cell_length_a   4.50383200
_cell_length_b   4.50383120
_cell_length_c   4.75514200
_cell_angle_alpha   90.00000000
_cell_angle_beta   90.00000000
_cell_angle_gamma   120.00000589
_symmetry_Int_Tables_number   183
_chemical_formula_structural   TiNi
_chemical_formula_sum   'Ti3 Ni3'
_cell_volume   83.53305866
_cell_formula_units_Z   3
loop_
 _symmetry_equiv_pos_site_id
 _symmetry_equiv_pos_as_xyz
  1  'x, y, z'
  2  'x-y, x, z'
  3  '-y, x-y, z'
  4  '-x, -y, z'
  5  '-x+y, -x, z'
  6  'y, -x+y, z'
  7  'y, x, z'
  8  'x, x-y, z'
  9  'x-y, -y, z'
  10  '-y, -x, z'
  11  '-x, -x+y, z'
  12  '-x+y, y, z'
loop_
 _atom_site_type_symbol
 _atom_site_label
 _atom_site_symmetry_multiplicity
 _atom_site_fract_x
 _atom_site_fract_y
 _atom_site_fract_z
 _atom_site_occupancy
  Ti  Ti0  2  0.33333333  0.66666667  0.85275400  1.0
  Ti  Ti1  1  0.00000000  0.00000000  0.27565300  1.0
  Ni  Ni2  2  0.33333333  0.66666667  0.34653700  1.0
  Ni  Ni3  1  0.00000000  0.00000000  0.78576600  1.0
