# generated using pymatgen
data_TiNi
_symmetry_space_group_name_H-M   Cmcm
_cell_length_a   2.91782200
_cell_length_b   4.01415800
_cell_length_c   4.91926754
_cell_angle_alpha   90.00000000
_cell_angle_beta   107.25175202
_cell_angle_gamma   90.00000000
_symmetry_Int_Tables_number   63
_chemical_formula_structural   TiNi
_chemical_formula_sum   'Ti2 Ni2'
_cell_volume   55.02524913
_cell_formula_units_Z   2
loop_
 _symmetry_equiv_pos_site_id
 _symmetry_equiv_pos_as_xyz
  1  'x, y, z'
  2  '-x, -y, -z'
  3  '-x, y+1/2, -z'
  4  'x, -y+1/2, z'
  5  'x-z, -y, -z'
  6  '-x+z, y, z'
  7  '-x+z, -y+1/2, z'
  8  'x-z, y+1/2, -z'
loop_
 _atom_site_type_symbol
 _atom_site_label
 _atom_site_symmetry_multiplicity
 _atom_site_fract_x
 _atom_site_fract_y
 _atom_site_fract_z
 _atom_site_occupancy
  Ti  Ti0  2  0.35725300  0.25000000  0.71450600  1.0
  Ni  Ni1  2  0.08505100  0.25000000  0.17010200  1.0
