# generated using pymatgen
data_Tb3Ni
_symmetry_space_group_name_H-M   Pnma
_cell_length_a   6.33576200
_cell_length_b   6.85324100
_cell_length_c   9.62766000
_cell_angle_alpha   90.00000000
_cell_angle_beta   90.00000000
_cell_angle_gamma   90.00000000
_symmetry_Int_Tables_number   62
_chemical_formula_structural   Tb3Ni
_chemical_formula_sum   'Tb12 Ni4'
_cell_volume   418.03784862
_cell_formula_units_Z   4
loop_
 _symmetry_equiv_pos_site_id
 _symmetry_equiv_pos_as_xyz
  1  'x, y, z'
  2  '-x, -y, -z'
  3  'x+1/2, -y+1/2, -z'
  4  '-x+1/2, y+1/2, z'
  5  '-x+1/2, y+1/2, -z+1/2'
  6  'x+1/2, -y+1/2, z+1/2'
  7  '-x, -y, z+1/2'
  8  'x, y, -z+1/2'
loop_
 _atom_site_type_symbol
 _atom_site_label
 _atom_site_symmetry_multiplicity
 _atom_site_fract_x
 _atom_site_fract_y
 _atom_site_fract_z
 _atom_site_occupancy
  Tb  Tb0  8  0.17647500  0.17893400  0.06624800  1.0
  Tb  Tb1  4  0.14343100  0.46350200  0.75000000  1.0
  Ni  Ni2  4  0.05856600  0.89004300  0.25000000  1.0
