# generated using pymatgen
data_Sr(NiP)2
_symmetry_space_group_name_H-M   Immm
_cell_length_a   3.95044800
_cell_length_b   8.17518220
_cell_length_c   8.17518220
_cell_angle_alpha   80.39478458
_cell_angle_beta   76.01828497
_cell_angle_gamma   76.01828498
_symmetry_Int_Tables_number   71
_chemical_formula_structural   Sr(NiP)2
_chemical_formula_sum   'Sr3 Ni6 P6'
_cell_volume   246.95458503
_cell_formula_units_Z   3
loop_
 _symmetry_equiv_pos_site_id
 _symmetry_equiv_pos_as_xyz
  1  'x, y, z'
  2  '-x, -y, -z'
  3  '-x-y-z, z, y'
  4  'x+y+z, -z, -y'
  5  'x+y+z, -y, -z'
  6  '-x-y-z, y, z'
  7  '-x, -z, -y'
  8  'x, z, y'
loop_
 _atom_site_type_symbol
 _atom_site_label
 _atom_site_symmetry_multiplicity
 _atom_site_fract_x
 _atom_site_fract_y
 _atom_site_fract_z
 _atom_site_occupancy
  Sr  Sr0  2  0.31654800  0.68345200  0.68345200  1.0
  Sr  Sr1  1  0.00000000  0.00000000  0.00000000  1.0
  Ni  Ni2  4  0.15664900  0.10414200  0.58255900  1.0
  Ni  Ni3  2  0.50000000  0.27065800  0.72934200  1.0
  P  P4  4  0.33559600  0.00517200  0.32363600  1.0
  P  P5  2  0.00000000  0.38113100  0.61886900  1.0
