# generated using pymatgen
data_Ni3P
_symmetry_space_group_name_H-M   I-4
_cell_length_a   4.37563400
_cell_length_b   6.68465204
_cell_length_c   6.68465204
_cell_angle_alpha   83.85076535
_cell_angle_beta   70.89565327
_cell_angle_gamma   70.89565327
_symmetry_Int_Tables_number   82
_chemical_formula_structural   Ni3P
_chemical_formula_sum   'Ni12 P4'
_cell_volume   174.57917514
_cell_formula_units_Z   4
loop_
 _symmetry_equiv_pos_site_id
 _symmetry_equiv_pos_as_xyz
  1  'x, y, z'
  2  '-x-y, -z, y'
  3  'x+y+z, -y, -z'
  4  '-x-z, z, -y'
loop_
 _atom_site_type_symbol
 _atom_site_label
 _atom_site_symmetry_multiplicity
 _atom_site_fract_x
 _atom_site_fract_y
 _atom_site_fract_z
 _atom_site_occupancy
  Ni  Ni0  4  0.00711400  0.60535200  0.33530200  1.0
  Ni  Ni1  4  0.07944000  0.94931800  0.39157600  1.0
  Ni  Ni2  4  0.12870700  0.19063000  0.03356200  1.0
  P  P3  4  0.23286900  0.23961800  0.33077400  1.0
