# generated using pymatgen
data_Zr3Ni2
_symmetry_space_group_name_H-M   I4/mcm
_cell_length_a   5.26257000
_cell_length_b   5.30008668
_cell_length_c   5.30008668
_cell_angle_alpha   75.73108362
_cell_angle_beta   60.23388008
_cell_angle_gamma   60.23388008
_symmetry_Int_Tables_number   140
_chemical_formula_structural   Zr3Ni2
_chemical_formula_sum   'Zr3 Ni2'
_cell_volume   111.39417733
_cell_formula_units_Z   1
loop_
 _symmetry_equiv_pos_site_id
 _symmetry_equiv_pos_as_xyz
  1  'x, y, z'
  2  '-x, -y, -z'
  3  'x+z, -z, y'
  4  '-x-z, z, -y'
  5  'x+y+z, -y, -z'
  6  '-x-y-z, y, z'
  7  'x+y, z, -y'
  8  '-x-y, -z, y'
  9  '-x-y-z+1/2, z, y'
  10  'x+y+z+1/2, -z, -y'
  11  '-x-y+1/2, y, -z'
  12  'x+y+1/2, -y, z'
  13  '-x+1/2, -z, -y'
  14  'x+1/2, z, y'
  15  '-x-z+1/2, -y, z'
  16  'x+z+1/2, y, -z'
loop_
 _atom_site_type_symbol
 _atom_site_label
 _atom_site_symmetry_multiplicity
 _atom_site_fract_x
 _atom_site_fract_y
 _atom_site_fract_z
 _atom_site_occupancy
  Zr  Zr0  4  0.16306000  0.17388000  0.50000000  0.75
  Ni  Ni1  2  0.25000000  0.00000000  0.00000000  1.0
