# generated using pymatgen
data_Zr2Ni1.63636364
_symmetry_space_group_name_H-M   Cmcm
_cell_length_a   3.30569000
_cell_length_b   4.08555900
_cell_length_c   5.25112139
_cell_angle_alpha   90.00000000
_cell_angle_beta   108.34634919
_cell_angle_gamma   90.00000000
_symmetry_Int_Tables_number   63
_chemical_formula_structural   Zr2Ni1.63636364
_chemical_formula_sum   'Zr2 Ni1.63636364'
_cell_volume   67.31474491
_cell_formula_units_Z   1
loop_
 _symmetry_equiv_pos_site_id
 _symmetry_equiv_pos_as_xyz
  1  'x, y, z'
  2  '-x, -y, -z'
  3  '-x, y+1/2, -z'
  4  'x, -y+1/2, z'
  5  'x-z, -y, -z'
  6  '-x+z, y, z'
  7  '-x+z, -y+1/2, z'
  8  'x-z, y+1/2, -z'
loop_
 _atom_site_type_symbol
 _atom_site_label
 _atom_site_symmetry_multiplicity
 _atom_site_fract_x
 _atom_site_fract_y
 _atom_site_fract_z
 _atom_site_occupancy
  Zr  Zr0  2  0.36056600  0.75000000  0.72113200  1.0
  Ni  Ni1  2  0.08274600  0.75000000  0.16549200  0.8181818182
