# generated using pymatgen
data_O2
_symmetry_space_group_name_H-M   C2/m
_cell_length_a   3.34266605
_cell_length_b   3.34266605
_cell_length_c   4.62597847
_cell_angle_alpha   107.85509027
_cell_angle_beta   107.85509027
_cell_angle_gamma   90.06067440
_symmetry_Int_Tables_number   12
_chemical_formula_structural   O2
_chemical_formula_sum   O2
_cell_volume   46.57025914
_cell_formula_units_Z   1
loop_
 _symmetry_equiv_pos_site_id
 _symmetry_equiv_pos_as_xyz
  1  'x, y, z'
  2  '-x, -y, -z'
  3  '-y, -x, -z'
  4  'y, x, z'
loop_
 _atom_site_type_symbol
 _atom_site_label
 _atom_site_symmetry_multiplicity
 _atom_site_fract_x
 _atom_site_fract_y
 _atom_site_fract_z
 _atom_site_occupancy
  O  O0  2  0.06273500  0.06273500  0.14791300  1.0
