# generated using pymatgen
data_O2
_symmetry_space_group_name_H-M   C2/m
_cell_length_a   3.30895687
_cell_length_b   3.30895687
_cell_length_c   4.19471037
_cell_angle_alpha   94.55839989
_cell_angle_beta   111.73317677
_cell_angle_gamma   115.45783591
_symmetry_Int_Tables_number   12
_chemical_formula_structural   O2
_chemical_formula_sum   O2
_cell_volume   36.92922723
_cell_formula_units_Z   1
loop_
 _symmetry_equiv_pos_site_id
 _symmetry_equiv_pos_as_xyz
  1  'x, y, z'
  2  '-x, -y, -z'
  3  'y-z, x-z, -z'
  4  '-y+z, -x+z, z'
loop_
 _atom_site_type_symbol
 _atom_site_label
 _atom_site_symmetry_multiplicity
 _atom_site_fract_x
 _atom_site_fract_y
 _atom_site_fract_z
 _atom_site_occupancy
  O  O0  2  0.11578500  0.04819400  0.16397900  1.0
