# generated using pymatgen
data_O2
_symmetry_space_group_name_H-M   C2/c
_cell_length_a   4.50086592
_cell_length_b   6.05038508
_cell_length_c   6.05038508
_cell_angle_alpha   97.98026776
_cell_angle_beta   108.39850027
_cell_angle_gamma   108.39850027
_symmetry_Int_Tables_number   15
_chemical_formula_structural   O2
_chemical_formula_sum   O8
_cell_volume   143.05340641
_cell_formula_units_Z   4
loop_
 _symmetry_equiv_pos_site_id
 _symmetry_equiv_pos_as_xyz
  1  'x, y, z'
  2  '-x, -y, -z'
  3  '-x+1/2, -z, -y'
  4  'x+1/2, z, y'
loop_
 _atom_site_type_symbol
 _atom_site_label
 _atom_site_symmetry_multiplicity
 _atom_site_fract_x
 _atom_site_fract_y
 _atom_site_fract_z
 _atom_site_occupancy
  O  O0  4  0.10604000  0.28879400  0.99308500  1.0
  O  O1  4  0.13913300  0.82202700  0.59869200  1.0
