# generated using pymatgen
data_O2
_symmetry_space_group_name_H-M   Fmmm
_cell_length_a   2.41391538
_cell_length_b   2.41391538
_cell_length_c   4.17806799
_cell_angle_alpha   102.92175447
_cell_angle_beta   102.92175456
_cell_angle_gamma   103.05607655
_symmetry_Int_Tables_number   69
_chemical_formula_structural   O2
_chemical_formula_sum   O2
_cell_volume   22.13118890
_cell_formula_units_Z   1
loop_
 _symmetry_equiv_pos_site_id
 _symmetry_equiv_pos_as_xyz
  1  'x, y, z'
  2  '-x, -y, -z'
  3  '-x+z, -y+z, z'
  4  'x-z, y-z, -z'
  5  'y-z, x-z, -z'
  6  '-y+z, -x+z, z'
  7  '-y, -x, -z'
  8  'y, x, z'
loop_
 _atom_site_type_symbol
 _atom_site_label
 _atom_site_symmetry_multiplicity
 _atom_site_fract_x
 _atom_site_fract_y
 _atom_site_fract_z
 _atom_site_occupancy
  O  O0  2  0.42109800  0.42109800  0.84219600  1.0
