# generated using pymatgen
data_O2
_symmetry_space_group_name_H-M   R3c
_cell_length_a   4.93716597
_cell_length_b   4.93716597
_cell_length_c   5.18472440
_cell_angle_alpha   61.56729657
_cell_angle_beta   61.56729657
_cell_angle_gamma   60.00000035
_symmetry_Int_Tables_number   161
_chemical_formula_structural   O2
_chemical_formula_sum   O6
_cell_volume   91.42355076
_cell_formula_units_Z   3
loop_
 _symmetry_equiv_pos_site_id
 _symmetry_equiv_pos_as_xyz
  1  'x, y, z'
  2  'y, -x-y-z, z'
  3  '-x-y-z, x, z'
  4  'y+1/2, x+1/2, z+1/2'
  5  '-x-y-z+1/2, y+1/2, z+1/2'
  6  'x+1/2, -x-y-z+1/2, z+1/2'
loop_
 _atom_site_type_symbol
 _atom_site_label
 _atom_site_symmetry_multiplicity
 _atom_site_fract_x
 _atom_site_fract_y
 _atom_site_fract_z
 _atom_site_occupancy
  O  O0  6  0.06816100  0.92688200  0.74013100  1.0
