# generated using pymatgen
data_O2
_symmetry_space_group_name_H-M   Pbca
_cell_length_a   6.85982900
_cell_length_b   7.12835500
_cell_length_c   7.98357300
_cell_angle_alpha   90.00000000
_cell_angle_beta   90.00000000
_cell_angle_gamma   90.00000000
_symmetry_Int_Tables_number   61
_chemical_formula_structural   O2
_chemical_formula_sum   O24
_cell_volume   390.39110207
_cell_formula_units_Z   12
loop_
 _symmetry_equiv_pos_site_id
 _symmetry_equiv_pos_as_xyz
  1  'x, y, z'
  2  '-x, -y, -z'
  3  '-x+1/2, -y, z+1/2'
  4  'x+1/2, y, -z+1/2'
  5  'x+1/2, -y+1/2, -z'
  6  '-x+1/2, y+1/2, z'
  7  '-x, y+1/2, -z+1/2'
  8  'x, -y+1/2, z+1/2'
loop_
 _atom_site_type_symbol
 _atom_site_label
 _atom_site_symmetry_multiplicity
 _atom_site_fract_x
 _atom_site_fract_y
 _atom_site_fract_z
 _atom_site_occupancy
  O  O0  8  0.05375400  0.06132200  0.19854100  1.0
  O  O1  8  0.15561700  0.18728100  0.12393400  1.0
  O  O2  8  0.24269300  0.63702000  0.99682000  1.0
