# generated using pymatgen
data_P
_symmetry_space_group_name_H-M   P-1
_cell_length_a   7.85748000
_cell_length_b   12.14707620
_cell_length_c   13.04870569
_cell_angle_alpha   102.66942805
_cell_angle_beta   106.71627095
_cell_angle_gamma   101.97555176
_symmetry_Int_Tables_number   2
_chemical_formula_structural   P
_chemical_formula_sum   P42
_cell_volume   1113.90600552
_cell_formula_units_Z   42
loop_
 _symmetry_equiv_pos_site_id
 _symmetry_equiv_pos_as_xyz
  1  'x, y, z'
  2  '-x, -y, -z'
loop_
 _atom_site_type_symbol
 _atom_site_label
 _atom_site_symmetry_multiplicity
 _atom_site_fract_x
 _atom_site_fract_y
 _atom_site_fract_z
 _atom_site_occupancy
  P  P0  2  0.02345500  0.41404100  0.84767200  1.0
  P  P1  2  0.03294300  0.51870300  0.72840400  1.0
  P  P2  2  0.05593600  0.95118000  0.17941800  1.0
  P  P3  2  0.10721600  0.82439200  0.39957700  1.0
  P  P4  2  0.11043500  0.99404800  0.36389800  1.0
  P  P5  2  0.14861900  0.42052800  0.60752500  1.0
  P  P6  2  0.19380900  0.26695900  0.66629100  1.0
  P  P7  2  0.22033200  0.72819100  0.27450600  1.0
  P  P8  2  0.22952100  0.12749000  0.17614100  1.0
  P  P9  2  0.23596800  0.32033700  0.84755400  1.0
  P  P10  2  0.26082000  0.84829800  0.17348700  1.0
  P  P11  2  0.27566500  0.66640400  0.84896500  1.0
  P  P12  2  0.27679700  0.76668500  0.72763300  1.0
  P  P13  2  0.33291800  0.22176300  0.35962900  1.0
  P  P14  2  0.38568000  0.66456200  0.60312900  1.0
  P  P15  2  0.41417600  0.08107100  0.42785300  1.0
  P  P16  2  0.44810100  0.51963400  0.66870500  1.0
  P  P17  2  0.47558400  0.39142500  0.15018400  1.0
  P  P18  2  0.48316000  0.01970800  0.70221800  1.0
  P  P19  2  0.48444100  0.54484100  0.08088700  1.0
  P  P20  2  0.48625600  0.07591400  0.17109900  1.0
