# generated using pymatgen
data_P
_symmetry_space_group_name_H-M   C2/m
_cell_length_a   5.34659530
_cell_length_b   8.20231085
_cell_length_c   8.20231085
_cell_angle_alpha   83.87999953
_cell_angle_beta   78.48193973
_cell_angle_gamma   78.48193973
_symmetry_Int_Tables_number   12
_chemical_formula_structural   P
_chemical_formula_sum   P2
_cell_volume   344.53048086
_cell_formula_units_Z   2
loop_
 _symmetry_equiv_pos_site_id
 _symmetry_equiv_pos_as_xyz
  1  'x, y, z'
  2  '-x, -y, -z'
  3  '-x, -z, -y'
  4  'x, z, y'
loop_
 _atom_site_type_symbol
 _atom_site_label
 _atom_site_symmetry_multiplicity
 _atom_site_fract_x
 _atom_site_fract_y
 _atom_site_fract_z
 _atom_site_occupancy
  P  P0  2  0.12032400  0.54491500  0.54491500  1.0
