# generated using pymatgen
data_P
_symmetry_space_group_name_H-M   Imma
_cell_length_a   3.42706800
_cell_length_b   3.57133935
_cell_length_c   3.57133935
_cell_angle_alpha   62.81239813
_cell_angle_beta   61.32756112
_cell_angle_gamma   61.32756112
_symmetry_Int_Tables_number   74
_chemical_formula_structural   P
_chemical_formula_sum   P2
_cell_volume   32.15573093
_cell_formula_units_Z   2
loop_
 _symmetry_equiv_pos_site_id
 _symmetry_equiv_pos_as_xyz
  1  'x, y, z'
  2  '-x, -y, -z'
  3  '-x+1/2, -z+1/2, -y+1/2'
  4  'x+1/2, z+1/2, y+1/2'
  5  'x+y+z, -y, -z'
  6  '-x-y-z, y, z'
  7  '-x-y-z+1/2, z+1/2, y+1/2'
  8  'x+y+z+1/2, -z+1/2, -y+1/2'
loop_
 _atom_site_type_symbol
 _atom_site_label
 _atom_site_symmetry_multiplicity
 _atom_site_fract_x
 _atom_site_fract_y
 _atom_site_fract_z
 _atom_site_occupancy
  P  P0  2  0.25000000  0.30068200  0.19931800  1.0
