# generated using pymatgen
data_P
_symmetry_space_group_name_H-M   Pm
_cell_length_a   5.59831800
_cell_length_b   6.34420666
_cell_length_c   19.80988200
_cell_angle_alpha   90.00000000
_cell_angle_beta   90.00000000
_cell_angle_gamma   103.92974241
_symmetry_Int_Tables_number   6
_chemical_formula_structural   P
_chemical_formula_sum   P10
_cell_volume   682.89404223
_cell_formula_units_Z   10
loop_
 _symmetry_equiv_pos_site_id
 _symmetry_equiv_pos_as_xyz
  1  'x, y, z'
  2  'x, y, -z'
loop_
 _atom_site_type_symbol
 _atom_site_label
 _atom_site_symmetry_multiplicity
 _atom_site_fract_x
 _atom_site_fract_y
 _atom_site_fract_z
 _atom_site_occupancy
  P  P0  2  0.14609700  0.69200600  0.41276600  1.0
  P  P1  2  0.17183700  0.36158500  0.44313700  1.0
  P  P2  2  0.54723900  0.32778100  0.41323300  1.0
  P  P3  2  0.75134000  0.65866400  0.44223600  1.0
  P  P4  1  0.22359700  0.91695600  0.50000000  1.0
  P  P5  1  0.61401500  0.12096200  0.50000000  1.0
