# generated using pymatgen
data_P
_symmetry_space_group_name_H-M   C2/m
_cell_length_a   6.00087216
_cell_length_b   6.81542443
_cell_length_c   6.81542443
_cell_angle_alpha   83.15697418
_cell_angle_beta   89.84714772
_cell_angle_gamma   89.84714772
_symmetry_Int_Tables_number   12
_chemical_formula_structural   P
_chemical_formula_sum   P8
_cell_volume   276.75315241
_cell_formula_units_Z   8
loop_
 _symmetry_equiv_pos_site_id
 _symmetry_equiv_pos_as_xyz
  1  'x, y, z'
  2  '-x, -y, -z'
  3  '-x, -z, -y'
  4  'x, z, y'
loop_
 _atom_site_type_symbol
 _atom_site_label
 _atom_site_symmetry_multiplicity
 _atom_site_fract_x
 _atom_site_fract_y
 _atom_site_fract_z
 _atom_site_occupancy
  P  P0  4  0.25257600  0.22771700  0.47131000  1.0
  P  P1  2  0.24498000  0.16249800  0.16249800  1.0
  P  P2  2  0.45027100  0.71786500  0.71786500  1.0
