# generated using pymatgen
data_P
_symmetry_space_group_name_H-M   P2/c
_cell_length_a   9.26050600
_cell_length_b   9.29048400
_cell_length_c   23.60402317
_cell_angle_alpha   98.13418260
_cell_angle_beta   90.00000000
_cell_angle_gamma   90.00000000
_symmetry_Int_Tables_number   13
_chemical_formula_structural   P
_chemical_formula_sum   P84
_cell_volume   2010.33164000
_cell_formula_units_Z   84
loop_
 _symmetry_equiv_pos_site_id
 _symmetry_equiv_pos_as_xyz
  1  'x, y, z'
  2  '-x, -y, -z'
  3  'x, -y+1/2, -z+1/2'
  4  '-x, y+1/2, z+1/2'
loop_
 _atom_site_type_symbol
 _atom_site_label
 _atom_site_symmetry_multiplicity
 _atom_site_fract_x
 _atom_site_fract_y
 _atom_site_fract_z
 _atom_site_occupancy
  P  P0  4  0.03534300  0.55348100  0.38119100  1.0
  P  P1  4  0.05171300  0.63316100  0.67847800  1.0
  P  P2  4  0.08511700  0.70408900  0.94870500  1.0
  P  P3  4  0.09993900  0.18454900  0.32520100  1.0
  P  P4  4  0.13317100  0.03056700  0.57006500  1.0
  P  P5  4  0.14031200  0.21074000  0.41891000  1.0
  P  P6  4  0.16319600  0.05105000  0.05302600  1.0
  P  P7  4  0.17929600  0.07336600  0.66395700  1.0
  P  P8  4  0.20141300  0.61911700  0.32148700  1.0
  P  P9  4  0.21489700  0.69333500  0.61770500  1.0
  P  P10  4  0.28040000  0.69496500  0.11741600  1.0
  P  P11  4  0.31736400  0.24398600  0.29635700  1.0
  P  P12  4  0.32254900  0.61956100  0.83115700  1.0
  P  P13  4  0.35523700  0.24736700  0.66258100  1.0
  P  P14  4  0.35752600  0.01954500  0.53671600  1.0
  P  P15  4  0.36446200  0.24390500  0.93186400  1.0
  P  P16  4  0.38589700  0.02921600  0.17361400  1.0
  P  P17  4  0.39243500  0.03545700  0.08009800  1.0
  P  P18  4  0.40628800  0.70060400  0.44949200  1.0
  P  P19  4  0.45074900  0.60578300  0.16787700  1.0
  P  P20  4  0.48670400  0.58256200  0.89575600  1.0
