# generated using pymatgen
data_Re2P
_symmetry_space_group_name_H-M   Pnma
_cell_length_a   2.96608800
_cell_length_b   5.57782300
_cell_length_c   10.11295600
_cell_angle_alpha   90.00000000
_cell_angle_beta   90.00000000
_cell_angle_gamma   90.00000000
_symmetry_Int_Tables_number   62
_chemical_formula_structural   Re2P
_chemical_formula_sum   'Re8 P4'
_cell_volume   167.31191818
_cell_formula_units_Z   4
loop_
 _symmetry_equiv_pos_site_id
 _symmetry_equiv_pos_as_xyz
  1  'x, y, z'
  2  '-x, -y, -z'
  3  '-x, -y+1/2, z+1/2'
  4  'x, y+1/2, -z+1/2'
  5  '-x+1/2, y+1/2, -z+1/2'
  6  'x+1/2, -y+1/2, z+1/2'
  7  'x+1/2, -y, -z'
  8  '-x+1/2, y, z'
loop_
 _atom_site_type_symbol
 _atom_site_label
 _atom_site_symmetry_multiplicity
 _atom_site_fract_x
 _atom_site_fract_y
 _atom_site_fract_z
 _atom_site_occupancy
  Re  Re0  4  0.25000000  0.32469100  0.56485400  1.0
  Re  Re1  4  0.25000000  0.35332100  0.28641900  1.0
  P  P2  4  0.25000000  0.40232000  0.89817900  1.0
