# generated using pymatgen
data_TaPRh
_symmetry_space_group_name_H-M   Pnma
_cell_length_a   3.78194300
_cell_length_b   6.31153200
_cell_length_c   7.21280500
_cell_angle_alpha   90.00000000
_cell_angle_beta   90.00000000
_cell_angle_gamma   90.00000000
_symmetry_Int_Tables_number   62
_chemical_formula_structural   TaPRh
_chemical_formula_sum   'Ta4 P4 Rh4'
_cell_volume   172.16860420
_cell_formula_units_Z   4
loop_
 _symmetry_equiv_pos_site_id
 _symmetry_equiv_pos_as_xyz
  1  'x, y, z'
  2  '-x, -y, -z'
  3  '-x, -y+1/2, z+1/2'
  4  'x, y+1/2, -z+1/2'
  5  '-x+1/2, y+1/2, -z+1/2'
  6  'x+1/2, -y+1/2, z+1/2'
  7  'x+1/2, -y, -z'
  8  '-x+1/2, y, z'
loop_
 _atom_site_type_symbol
 _atom_site_label
 _atom_site_symmetry_multiplicity
 _atom_site_fract_x
 _atom_site_fract_y
 _atom_site_fract_z
 _atom_site_occupancy
  Ta  Ta0  4  0.25000000  0.03061500  0.83331100  1.0
  P  P1  4  0.25000000  0.26217200  0.12562600  1.0
  Rh  Rh2  4  0.25000000  0.14817200  0.43565000  1.0
