# generated using pymatgen
data_TaPS
_symmetry_space_group_name_H-M   Immm
_cell_length_a   3.45508400
_cell_length_b   4.74433600
_cell_length_c   6.64898744
_cell_angle_alpha   110.90204335
_cell_angle_beta   105.05940044
_cell_angle_gamma   90.00000001
_symmetry_Int_Tables_number   71
_chemical_formula_structural   TaPS
_chemical_formula_sum   'Ta2 P2 S2'
_cell_volume   97.80104681
_cell_formula_units_Z   2
loop_
 _symmetry_equiv_pos_site_id
 _symmetry_equiv_pos_as_xyz
  1  'x, y, z'
  2  '-x, -y, -z'
  3  '-x+z, -y+z, z'
  4  'x-z, y-z, -z'
  5  'x-z, -y, -z'
  6  '-x+z, y, z'
  7  '-x, y-z, -z'
  8  'x, -y+z, z'
loop_
 _atom_site_type_symbol
 _atom_site_label
 _atom_site_symmetry_multiplicity
 _atom_site_fract_x
 _atom_site_fract_y
 _atom_site_fract_z
 _atom_site_occupancy
  Ta  Ta0  2  0.12223600  0.62223600  0.24447200  1.0
  P  P1  2  0.50000000  0.23609400  0.00000000  1.0
  S  S2  2  0.21318900  0.21318900  0.42637800  1.0
