# generated using pymatgen
data_V3P
_symmetry_space_group_name_H-M   P4_2/n
_cell_length_a   4.74355900
_cell_length_b   9.33978600
_cell_length_c   9.33978600
_cell_angle_alpha   90.00000000
_cell_angle_beta   90.00000000
_cell_angle_gamma   90.00000000
_symmetry_Int_Tables_number   86
_chemical_formula_structural   V3P
_chemical_formula_sum   'V24 P8'
_cell_volume   413.78825325
_cell_formula_units_Z   8
loop_
 _symmetry_equiv_pos_site_id
 _symmetry_equiv_pos_as_xyz
  1  'x, y, z'
  2  'x+1/2, -z+1/2, y+1/2'
  3  'x, -y, -z'
  4  'x+1/2, z+1/2, -y+1/2'
  5  '-x+1/2, -y+1/2, -z+1/2'
  6  '-x, z, -y'
  7  '-x+1/2, y+1/2, z+1/2'
  8  '-x, -z, y'
loop_
 _atom_site_type_symbol
 _atom_site_label
 _atom_site_symmetry_multiplicity
 _atom_site_fract_x
 _atom_site_fract_y
 _atom_site_fract_z
 _atom_site_occupancy
  V  V0  8  0.00912200  0.19480700  0.28407200  1.0
  V  V1  8  0.01905500  0.09206900  0.58270600  1.0
  V  V2  8  0.23612300  0.48894300  0.64772700  1.0
  P  P3  8  0.23367500  0.20815000  0.02150100  1.0
