# generated using pymatgen
data_PW3
_symmetry_space_group_name_H-M   I-4
_cell_length_a   4.85781000
_cell_length_b   7.41402735
_cell_length_c   7.41402735
_cell_angle_alpha   83.83869567
_cell_angle_beta   70.87626054
_cell_angle_gamma   70.87626054
_symmetry_Int_Tables_number   82
_chemical_formula_structural   PW3
_chemical_formula_sum   'P4 W12'
_cell_volume   238.36409971
_cell_formula_units_Z   4
loop_
 _symmetry_equiv_pos_site_id
 _symmetry_equiv_pos_as_xyz
  1  'x, y, z'
  2  '-x-y, -z, y'
  3  'x+y+z, -y, -z'
  4  '-x-z, z, -y'
loop_
 _atom_site_type_symbol
 _atom_site_label
 _atom_site_symmetry_multiplicity
 _atom_site_fract_x
 _atom_site_fract_y
 _atom_site_fract_z
 _atom_site_occupancy
  P  P0  4  0.20870500  0.28260600  0.30095500  1.0
  W  W1  4  0.00308600  0.64095300  0.35084200  1.0
  W  W2  4  0.07526600  0.98885800  0.39908700  1.0
  W  W3  4  0.13576000  0.18752500  0.00501100  1.0
