# generated using pymatgen
data_Zr3P
_symmetry_space_group_name_H-M   P4_2/n
_cell_length_a   5.38075200
_cell_length_b   10.85866300
_cell_length_c   10.85866300
_cell_angle_alpha   90.00000000
_cell_angle_beta   90.00000000
_cell_angle_gamma   90.00000000
_symmetry_Int_Tables_number   86
_chemical_formula_structural   Zr3P
_chemical_formula_sum   'Zr24 P8'
_cell_volume   634.44749310
_cell_formula_units_Z   8
loop_
 _symmetry_equiv_pos_site_id
 _symmetry_equiv_pos_as_xyz
  1  'x, y, z'
  2  'x+1/2, -z+1/2, y+1/2'
  3  'x, -y, -z'
  4  'x+1/2, z+1/2, -y+1/2'
  5  '-x+1/2, -y+1/2, -z+1/2'
  6  '-x, z, -y'
  7  '-x+1/2, y+1/2, z+1/2'
  8  '-x, -z, y'
loop_
 _atom_site_type_symbol
 _atom_site_label
 _atom_site_symmetry_multiplicity
 _atom_site_fract_x
 _atom_site_fract_y
 _atom_site_fract_z
 _atom_site_occupancy
  Zr  Zr0  8  0.01510200  0.17945000  0.28480600  1.0
  Zr  Zr1  8  0.03707700  0.10734800  0.58479000  1.0
  Zr  Zr2  8  0.22182100  0.47270900  0.63716800  1.0
  P  P3  8  0.21337300  0.20646900  0.04076900  1.0
