# generated using pymatgen
data_Sn1P0.75
_symmetry_space_group_name_H-M   I4mm
_cell_length_a   3.86444800
_cell_length_b   4.09545915
_cell_length_c   3.86444800
_cell_angle_alpha   118.15098576
_cell_angle_beta   89.99999999
_cell_angle_gamma   118.15098577
_symmetry_Int_Tables_number   107
_chemical_formula_structural   Sn1P0.75
_chemical_formula_sum   'Sn1 P0.75'
_cell_volume   45.55666714
_cell_formula_units_Z   1
loop_
 _symmetry_equiv_pos_site_id
 _symmetry_equiv_pos_as_xyz
  1  'x, y, z'
  2  'y-z, y, x'
  3  '-x+y, y, y-z'
  4  'z, y, -x+y'
  5  '-x+y, y, z'
  6  'z, y, x'
  7  'x, y, y-z'
  8  'y-z, y, -x+y'
loop_
 _atom_site_type_symbol
 _atom_site_label
 _atom_site_symmetry_multiplicity
 _atom_site_fract_x
 _atom_site_fract_y
 _atom_site_fract_z
 _atom_site_occupancy
  Sn  Sn0  1  0.00195900  0.00391800  0.00195900  1.0
  P  P1  1  0.57004100  0.14008200  0.57004100  0.75
