# generated using pymatgen
data_Sn4P3
_symmetry_space_group_name_H-M   R-3m
_cell_length_a   4.01840172
_cell_length_b   4.01840172
_cell_length_c   12.18490219
_cell_angle_alpha   80.50901053
_cell_angle_beta   80.50901053
_cell_angle_gamma   60.00000461
_symmetry_Int_Tables_number   166
_chemical_formula_structural   Sn4P3
_chemical_formula_sum   'Sn4 P3'
_cell_volume   167.27883105
_cell_formula_units_Z   1
loop_
 _symmetry_equiv_pos_site_id
 _symmetry_equiv_pos_as_xyz
  1  'x, y, z'
  2  '-x, -y, -z'
  3  '-x-y-z, x, z'
  4  'x+y+z, -x, -z'
  5  'y, -x-y-z, z'
  6  '-y, x+y+z, -z'
  7  '-x, x+y+z, -z'
  8  'x, -x-y-z, z'
  9  'x+y+z, -y, -z'
  10  '-x-y-z, y, z'
  11  '-y, -x, -z'
  12  'y, x, z'
loop_
 _atom_site_type_symbol
 _atom_site_label
 _atom_site_symmetry_multiplicity
 _atom_site_fract_x
 _atom_site_fract_y
 _atom_site_fract_z
 _atom_site_occupancy
  Sn  Sn0  2  0.13307500  0.13307500  0.60077500  1.0
  Sn  Sn1  2  0.29009200  0.29009200  0.12972400  1.0
  P  P2  2  0.42902800  0.42902800  0.71291600  1.0
  P  P3  1  0.00000000  0.00000000  0.00000000  1.0
