# generated using pymatgen
data_Re3P4
_symmetry_space_group_name_H-M   C2/m
_cell_length_a   3.03167200
_cell_length_b   6.08339871
_cell_length_c   6.32196504
_cell_angle_alpha   113.16472129
_cell_angle_beta   103.87313814
_cell_angle_gamma   90.00000000
_symmetry_Int_Tables_number   12
_chemical_formula_structural   Re3P4
_chemical_formula_sum   'Re3 P4'
_cell_volume   103.48531982
_cell_formula_units_Z   1
loop_
 _symmetry_equiv_pos_site_id
 _symmetry_equiv_pos_as_xyz
  1  'x, y, z'
  2  '-x, -y, -z'
  3  'x-z, -y, -z'
  4  '-x+z, y, z'
loop_
 _atom_site_type_symbol
 _atom_site_label
 _atom_site_symmetry_multiplicity
 _atom_site_fract_x
 _atom_site_fract_y
 _atom_site_fract_z
 _atom_site_occupancy
  Re  Re0  2  0.26374700  0.31867100  0.52749400  1.0
  Re  Re1  1  0.00000000  0.00000000  0.00000000  1.0
  P  P2  2  0.08505700  0.43594400  0.17011400  1.0
  P  P3  2  0.35089500  0.02447200  0.70179000  1.0
