# generated using pymatgen
data_P2W7O25
_symmetry_space_group_name_H-M   P2_1/c
_cell_length_a   5.41614800
_cell_length_b   6.71513600
_cell_length_c   27.28221600
_cell_angle_alpha   90.00000000
_cell_angle_beta   89.99931116
_cell_angle_gamma   90.00000000
_symmetry_Int_Tables_number   14
_chemical_formula_structural   P2W7O25
_chemical_formula_sum   'P4 W14 O50'
_cell_volume   992.25884518
_cell_formula_units_Z   2
loop_
 _symmetry_equiv_pos_site_id
 _symmetry_equiv_pos_as_xyz
  1  'x, y, z'
  2  '-x, -y, -z'
  3  '-x+1/2, y+1/2, -z+1/2'
  4  'x+1/2, -y+1/2, z+1/2'
loop_
 _atom_site_type_symbol
 _atom_site_label
 _atom_site_symmetry_multiplicity
 _atom_site_fract_x
 _atom_site_fract_y
 _atom_site_fract_z
 _atom_site_occupancy
  P  P0  4  0.00839900  0.19777700  0.79112200  1.0
  W  W1  4  0.00145700  0.66919600  0.55646800  1.0
  W  W2  4  0.00220800  0.99717200  0.32864900  1.0
  W  W3  4  0.00270500  0.83877100  0.88555200  1.0
  W  W4  2  0.00000000  0.50000000  0.00000000  1.0
  O  O5  4  0.00102800  0.66890600  0.93867100  1.0
  O  O6  4  0.00251800  0.01057100  0.82336200  1.0
  O  O7  4  0.00392900  0.15773400  0.38383600  1.0
  O  O8  4  0.00857500  0.86606100  0.26307100  1.0
  O  O9  4  0.21428900  0.66688100  0.19813100  1.0
  O  O10  4  0.22748000  0.48819900  0.59113300  1.0
  O  O11  4  0.23059400  0.98551200  0.08695900  1.0
  O  O12  4  0.23359500  0.15590200  0.47343700  1.0
  O  O13  4  0.23497900  0.31592100  0.96771900  1.0
  O  O14  4  0.23634400  0.81783600  0.35286000  1.0
  O  O15  4  0.23921300  0.66066800  0.84900500  1.0
  O  O16  4  0.24539200  0.81005400  0.70232800  1.0
  O  O17  2  0.00000000  0.50000000  0.50000000  1.0
