# generated using pymatgen
data_PtPb4
_symmetry_space_group_name_H-M   P4/nbm
_cell_length_a   6.14472700
_cell_length_b   6.79981700
_cell_length_c   6.79981700
_cell_angle_alpha   90.00000000
_cell_angle_beta   90.00000000
_cell_angle_gamma   90.00000000
_symmetry_Int_Tables_number   125
_chemical_formula_structural   PtPb4
_chemical_formula_sum   'Pt2 Pb8'
_cell_volume   284.11688369
_cell_formula_units_Z   2
loop_
 _symmetry_equiv_pos_site_id
 _symmetry_equiv_pos_as_xyz
  1  'x, y, z'
  2  'x, -z, y'
  3  'x, -y, -z'
  4  'x, z, -y'
  5  '-x, y, -z'
  6  '-x, -z, -y'
  7  '-x, -y, z'
  8  '-x, z, y'
  9  '-x, -y+1/2, -z+1/2'
  10  '-x, z+1/2, -y+1/2'
  11  '-x, y+1/2, z+1/2'
  12  '-x, -z+1/2, y+1/2'
  13  'x, -y+1/2, z+1/2'
  14  'x, z+1/2, y+1/2'
  15  'x, y+1/2, -z+1/2'
  16  'x, -z+1/2, -y+1/2'
loop_
 _atom_site_type_symbol
 _atom_site_label
 _atom_site_symmetry_multiplicity
 _atom_site_fract_x
 _atom_site_fract_y
 _atom_site_fract_z
 _atom_site_occupancy
  Pt  Pt0  2  0.00000000  0.00000000  0.00000000  1.0
  Pb  Pb1  8  0.25101800  0.17455800  0.32544200  1.0
