# generated using pymatgen
data_Tl0.016Te4Pb3.984
_symmetry_space_group_name_H-M   Pnma
_cell_length_a   4.58752200
_cell_length_b   4.65668700
_cell_length_c   13.93414900
_cell_angle_alpha   90.00000000
_cell_angle_beta   90.00000000
_cell_angle_gamma   90.00000000
_symmetry_Int_Tables_number   62
_chemical_formula_structural   Tl0.016Te4Pb3.984
_chemical_formula_sum   'Tl0.016 Te4 Pb3.984'
_cell_volume   297.67040470
_cell_formula_units_Z   1
loop_
 _symmetry_equiv_pos_site_id
 _symmetry_equiv_pos_as_xyz
  1  'x, y, z'
  2  '-x, -y, -z'
  3  'x+1/2, -y, -z+1/2'
  4  '-x+1/2, y, z+1/2'
  5  '-x+1/2, -y+1/2, z+1/2'
  6  'x+1/2, y+1/2, -z+1/2'
  7  '-x, y+1/2, -z'
  8  'x, -y+1/2, z'
loop_
 _atom_site_type_symbol
 _atom_site_label
 _atom_site_symmetry_multiplicity
 _atom_site_fract_x
 _atom_site_fract_y
 _atom_site_fract_z
 _atom_site_occupancy
  Te  Te0  4  0.05818500  0.25000000  0.62970100  1.0
  Pb  Pb1  4  0.06639600  0.25000000  0.84788100  0.996
  Tl  Tl2  4  0.06639600  0.25000000  0.84788100  0.004
