# generated using pymatgen
data_Pb
_symmetry_space_group_name_H-M   I4/mcm
_cell_length_a   6.42171554
_cell_length_b   6.42171554
_cell_length_c   6.42171554
_cell_angle_alpha   106.42703281
_cell_angle_beta   111.01442498
_cell_angle_gamma   111.01442498
_symmetry_Int_Tables_number   140
_chemical_formula_structural   Pb
_chemical_formula_sum   Pb6
_cell_volume   203.43097114
_cell_formula_units_Z   6
loop_
 _symmetry_equiv_pos_site_id
 _symmetry_equiv_pos_as_xyz
  1  'x, y, z'
  2  '-x, -y+1/2, -z+1/2'
  3  '-y+z, z+1/2, -x+z+1/2'
  4  'y-z, -z, x-z'
  5  '-x, -x+z, -x+y'
  6  'x, x-z+1/2, x-y+1/2'
  7  'y-z, -x+y+1/2, y+1/2'
  8  '-y+z, x-y, -y'
  9  '-y+z, -y, x-y'
  10  'y-z, y+1/2, -x+y+1/2'
  11  '-x, -z+1/2, -y+1/2'
  12  'x, z, y'
  13  'y-z, x-z, -z'
  14  '-y+z, -x+z+1/2, z+1/2'
  15  'x, x-y+1/2, x-z+1/2'
  16  '-x, -x+y, -x+z'
loop_
 _atom_site_type_symbol
 _atom_site_label
 _atom_site_symmetry_multiplicity
 _atom_site_fract_x
 _atom_site_fract_y
 _atom_site_fract_z
 _atom_site_occupancy
  Pb  Pb0  4  0.00000000  0.09186000  0.40814000  1.0
  Pb  Pb1  2  0.50000000  0.00000000  0.50000000  1.0
