# generated using pymatgen
data_PbO2
_symmetry_space_group_name_H-M   P2_1/m
_cell_length_a   5.73451000
_cell_length_b   8.00519100
_cell_length_c   8.64226980
_cell_angle_alpha   114.56941638
_cell_angle_beta   90.00000000
_cell_angle_gamma   90.00000000
_symmetry_Int_Tables_number   11
_chemical_formula_structural   PbO2
_chemical_formula_sum   'Pb6 O12'
_cell_volume   360.81000233
_cell_formula_units_Z   6
loop_
 _symmetry_equiv_pos_site_id
 _symmetry_equiv_pos_as_xyz
  1  'x, y, z'
  2  '-x, -y, -z'
  3  'x+1/2, -y, -z'
  4  '-x+1/2, y, z'
loop_
 _atom_site_type_symbol
 _atom_site_label
 _atom_site_symmetry_multiplicity
 _atom_site_fract_x
 _atom_site_fract_y
 _atom_site_fract_z
 _atom_site_occupancy
  Pb  Pb0  2  0.25000000  0.00934700  0.64823900  1.0
  Pb  Pb1  2  0.25000000  0.38784700  0.51200800  1.0
  Pb  Pb2  2  0.25000000  0.58475900  0.22337200  1.0
  O  O3  4  0.00525200  0.19630500  0.56208000  1.0
  O  O4  4  0.01169900  0.41656300  0.32016500  1.0
  O  O5  2  0.25000000  0.87935300  0.95466100  1.0
  O  O6  2  0.25000000  0.93397100  0.11192000  1.0
