# generated using pymatgen
data_PbO2
_symmetry_space_group_name_H-M   P-1
_cell_length_a   5.86798080
_cell_length_b   7.35161075
_cell_length_c   7.46990711
_cell_angle_alpha   104.33459856
_cell_angle_beta   90.40377239
_cell_angle_gamma   90.57055170
_symmetry_Int_Tables_number   2
_chemical_formula_structural   PbO2
_chemical_formula_sum   'Pb6 O12'
_cell_volume   312.18197019
_cell_formula_units_Z   6
loop_
 _symmetry_equiv_pos_site_id
 _symmetry_equiv_pos_as_xyz
  1  'x, y, z'
  2  '-x, -y, -z'
loop_
 _atom_site_type_symbol
 _atom_site_label
 _atom_site_symmetry_multiplicity
 _atom_site_fract_x
 _atom_site_fract_y
 _atom_site_fract_z
 _atom_site_occupancy
  Pb  Pb0  2  0.23925300  0.71912400  0.12410400  1.0
  Pb  Pb1  2  0.25199200  0.39933200  0.57944500  1.0
  Pb  Pb2  2  0.25299500  0.93261000  0.64227400  1.0
  O  O3  2  0.00294300  0.17964700  0.62234600  1.0
  O  O4  2  0.07901500  0.43034600  0.17560900  1.0
  O  O5  2  0.23918600  0.20523000  0.98213600  1.0
  O  O6  2  0.25372100  0.19918300  0.26222000  1.0
  O  O7  2  0.46675300  0.39333800  0.16057000  1.0
  O  O8  2  0.49517500  0.81458500  0.37460100  1.0
