# generated using pymatgen
data_ScPd2Pb
_symmetry_space_group_name_H-M   Immm
_cell_length_a   9.98369200
_cell_length_b   11.53397768
_cell_length_c   11.53397768
_cell_angle_alpha   62.53380708
_cell_angle_beta   64.35494123
_cell_angle_gamma   64.35494123
_symmetry_Int_Tables_number   71
_chemical_formula_structural   ScPd2Pb
_chemical_formula_sum   'Sc1 Pd2 Pb1'
_cell_volume   1016.22149080
_cell_formula_units_Z   1
loop_
 _symmetry_equiv_pos_site_id
 _symmetry_equiv_pos_as_xyz
  1  'x, y, z'
  2  '-x, -y, -z'
  3  '-x-y-z, z, y'
  4  'x+y+z, -z, -y'
  5  'x+y+z, -y, -z'
  6  '-x-y-z, y, z'
  7  '-x, -z, -y'
  8  'x, z, y'
loop_
 _atom_site_type_symbol
 _atom_site_label
 _atom_site_symmetry_multiplicity
 _atom_site_fract_x
 _atom_site_fract_y
 _atom_site_fract_z
 _atom_site_occupancy
  Sc  Sc0  1  0.00000000  0.00000000  0.00000000  1.0
  Pd  Pd1  2  0.22795300  0.00000000  0.00000000  1.0
  Pb  Pb2  1  0.50000000  0.00000000  0.00000000  1.0
