# generated using pymatgen
data_TlPdPb
_symmetry_space_group_name_H-M   Fmmm
_cell_length_a   5.63033662
_cell_length_b   5.63033662
_cell_length_c   5.87681457
_cell_angle_alpha   105.95120191
_cell_angle_beta   105.95120192
_cell_angle_gamma   115.23307444
_symmetry_Int_Tables_number   69
_chemical_formula_structural   TlPdPb
_chemical_formula_sum   'Tl2 Pd2 Pb2'
_cell_volume   144.64578475
_cell_formula_units_Z   2
loop_
 _symmetry_equiv_pos_site_id
 _symmetry_equiv_pos_as_xyz
  1  'x, y, z'
  2  '-x, -y, -z'
  3  '-x+z, -y+z, z'
  4  'x-z, y-z, -z'
  5  'y-z, x-z, -z'
  6  '-y+z, -x+z, z'
  7  '-y, -x, -z'
  8  'y, x, z'
loop_
 _atom_site_type_symbol
 _atom_site_label
 _atom_site_symmetry_multiplicity
 _atom_site_fract_x
 _atom_site_fract_y
 _atom_site_fract_z
 _atom_site_occupancy
  Tl  Tl0  2  0.33333333  0.66666667  0.00000000  1.0
  Pd  Pd1  2  0.25000000  0.75000000  0.50000000  1.0
  Pb  Pb2  2  0.16467100  0.16467100  0.32934200  1.0
