# generated using pymatgen
data_PbS
_symmetry_space_group_name_H-M   R3m
_cell_length_a   4.24469576
_cell_length_b   4.24469576
_cell_length_c   4.25969851
_cell_angle_alpha   60.11644182
_cell_angle_beta   60.11644182
_cell_angle_gamma   60.00000380
_symmetry_Int_Tables_number   160
_chemical_formula_structural   PbS
_chemical_formula_sum   'Pb1 S1'
_cell_volume   54.36496836
_cell_formula_units_Z   1
loop_
 _symmetry_equiv_pos_site_id
 _symmetry_equiv_pos_as_xyz
  1  'x, y, z'
  2  'y, -x-y-z, z'
  3  '-x-y-z, x, z'
  4  'x, -x-y-z, z'
  5  'y, x, z'
  6  '-x-y-z, y, z'
loop_
 _atom_site_type_symbol
 _atom_site_label
 _atom_site_symmetry_multiplicity
 _atom_site_fract_x
 _atom_site_fract_y
 _atom_site_fract_z
 _atom_site_occupancy
  Pb  Pb0  1  0.98465500  0.98465500  0.04603500  1.0
  S  S1  1  0.47094500  0.47094500  0.58716500  1.0
