# generated using pymatgen
data_PbSe
_symmetry_space_group_name_H-M   Fmm2
_cell_length_a   4.41488996
_cell_length_b   4.41488996
_cell_length_c   12.39927588
_cell_angle_alpha   100.23083384
_cell_angle_beta   100.23083381
_cell_angle_gamma   90.13381505
_symmetry_Int_Tables_number   42
_chemical_formula_structural   PbSe
_chemical_formula_sum   'Pb2 Se2'
_cell_volume   233.90997593
_cell_formula_units_Z   2
loop_
 _symmetry_equiv_pos_site_id
 _symmetry_equiv_pos_as_xyz
  1  'x, y, z'
  2  '-y, -x, -z'
  3  '-y+z, -x+z, z'
  4  'x-z, y-z, -z'
loop_
 _atom_site_type_symbol
 _atom_site_label
 _atom_site_symmetry_multiplicity
 _atom_site_fract_x
 _atom_site_fract_y
 _atom_site_fract_z
 _atom_site_occupancy
  Pb  Pb0  2  0.19073000  0.19473300  0.38546300  1.0
  Se  Se1  2  0.29558100  0.32557700  0.62115800  1.0
