# generated using pymatgen
data_PbS
_symmetry_space_group_name_H-M   Cmcm
_cell_length_a   4.19769000
_cell_length_b   4.30322700
_cell_length_c   6.48000472
_cell_angle_alpha   90.00000000
_cell_angle_beta   108.89867852
_cell_angle_gamma   90.00000000
_symmetry_Int_Tables_number   63
_chemical_formula_structural   PbS
_chemical_formula_sum   'Pb2 S2'
_cell_volume   110.74233900
_cell_formula_units_Z   2
loop_
 _symmetry_equiv_pos_site_id
 _symmetry_equiv_pos_as_xyz
  1  'x, y, z'
  2  '-x, -y, -z'
  3  '-x, y+1/2, -z'
  4  'x, -y+1/2, z'
  5  'x-z, -y, -z'
  6  '-x+z, y, z'
  7  '-x+z, -y+1/2, z'
  8  'x-z, y+1/2, -z'
loop_
 _atom_site_type_symbol
 _atom_site_label
 _atom_site_symmetry_multiplicity
 _atom_site_fract_x
 _atom_site_fract_y
 _atom_site_fract_z
 _atom_site_occupancy
  Pb  Pb0  2  0.13291000  0.25000000  0.26582000  1.0
  S  S1  2  0.35422100  0.25000000  0.70844200  1.0
