# generated using pymatgen
data_PbS
_symmetry_space_group_name_H-M   C2/m
_cell_length_a   4.24533476
_cell_length_b   4.24533476
_cell_length_c   11.31214498
_cell_angle_alpha   94.02263504
_cell_angle_beta   94.02263504
_cell_angle_gamma   90.00011452
_symmetry_Int_Tables_number   12
_chemical_formula_structural   PbS
_chemical_formula_sum   'Pb2 S2'
_cell_volume   202.87150330
_cell_formula_units_Z   2
loop_
 _symmetry_equiv_pos_site_id
 _symmetry_equiv_pos_as_xyz
  1  'x, y, z'
  2  '-x, -y, -z'
  3  '-y, -x, -z'
  4  'y, x, z'
loop_
 _atom_site_type_symbol
 _atom_site_label
 _atom_site_symmetry_multiplicity
 _atom_site_fract_x
 _atom_site_fract_y
 _atom_site_fract_z
 _atom_site_occupancy
  Pb  Pb0  2  0.22617600  0.22617600  0.37490200  1.0
  S  S1  2  0.27108000  0.27108000  0.61411600  1.0
