# generated using pymatgen
data_PbS
_symmetry_space_group_name_H-M   P2_1/m
_cell_length_a   4.12452900
_cell_length_b   6.03653800
_cell_length_c   9.91161274
_cell_angle_alpha   97.13647407
_cell_angle_beta   90.00000000
_cell_angle_gamma   90.00000000
_symmetry_Int_Tables_number   11
_chemical_formula_structural   PbS
_chemical_formula_sum   'Pb4 S4'
_cell_volume   244.86632847
_cell_formula_units_Z   4
loop_
 _symmetry_equiv_pos_site_id
 _symmetry_equiv_pos_as_xyz
  1  'x, y, z'
  2  '-x, -y, -z'
  3  'x+1/2, -y, -z'
  4  '-x+1/2, y, z'
loop_
 _atom_site_type_symbol
 _atom_site_label
 _atom_site_symmetry_multiplicity
 _atom_site_fract_x
 _atom_site_fract_y
 _atom_site_fract_z
 _atom_site_occupancy
  Pb  Pb0  2  0.25000000  0.24062000  0.40053600  1.0
  Pb  Pb1  2  0.25000000  0.77631200  0.09255600  1.0
  S  S2  2  0.25000000  0.04911500  0.65910600  1.0
  S  S3  2  0.25000000  0.26973000  0.09854000  1.0
