# generated using pymatgen
data_PbSe
_symmetry_space_group_name_H-M   Cmcm
_cell_length_a   4.33433800
_cell_length_b   4.49713100
_cell_length_c   6.50250301
_cell_angle_alpha   90.00000000
_cell_angle_beta   109.46811782
_cell_angle_gamma   90.00000000
_symmetry_Int_Tables_number   63
_chemical_formula_structural   PbSe
_chemical_formula_sum   'Pb2 Se2'
_cell_volume   119.50083206
_cell_formula_units_Z   2
loop_
 _symmetry_equiv_pos_site_id
 _symmetry_equiv_pos_as_xyz
  1  'x, y, z'
  2  '-x, -y, -z'
  3  '-x, y+1/2, -z'
  4  'x, -y+1/2, z'
  5  'x-z, -y, -z'
  6  '-x+z, y, z'
  7  '-x+z, -y+1/2, z'
  8  'x-z, y+1/2, -z'
loop_
 _atom_site_type_symbol
 _atom_site_label
 _atom_site_symmetry_multiplicity
 _atom_site_fract_x
 _atom_site_fract_y
 _atom_site_fract_z
 _atom_site_occupancy
  Pb  Pb0  2  0.37019100  0.25000000  0.74038200  1.0
  Se  Se1  2  0.13686700  0.25000000  0.27373400  1.0
