# generated using pymatgen
data_PdRhPb4
_symmetry_space_group_name_H-M   I422
_cell_length_a   5.73588043
_cell_length_b   5.73588043
_cell_length_c   5.73588043
_cell_angle_alpha   105.54105324
_cell_angle_beta   105.54105324
_cell_angle_gamma   117.65473863
_symmetry_Int_Tables_number   97
_chemical_formula_structural   PdRhPb4
_chemical_formula_sum   'Pd1 Rh1 Pb4'
_cell_volume   143.01884856
_cell_formula_units_Z   1
loop_
 _symmetry_equiv_pos_site_id
 _symmetry_equiv_pos_as_xyz
  1  'x, y, z'
  2  'x-z, x, x-y'
  3  'y-z, x-z, -z'
  4  'y, y-z, -x+y'
  5  '-y+z, -y, x-y'
  6  '-y, -x, -z'
  7  '-x, -x+z, -x+y'
  8  '-x+z, -y+z, z'
loop_
 _atom_site_type_symbol
 _atom_site_label
 _atom_site_symmetry_multiplicity
 _atom_site_fract_x
 _atom_site_fract_y
 _atom_site_fract_z
 _atom_site_occupancy
  Pd  Pd0  1  0.00000000  0.00000000  0.00000000  1.0
  Rh  Rh1  1  0.50000000  0.50000000  0.00000000  1.0
  Pb  Pb2  4  0.08492500  0.91507500  0.50000000  1.0
