# generated using pymatgen
data_PdPb2
_symmetry_space_group_name_H-M   I4/mcm
_cell_length_a   5.79296828
_cell_length_b   5.79296828
_cell_length_c   5.79296828
_cell_angle_alpha   105.13810932
_cell_angle_beta   105.13810932
_cell_angle_gamma   118.53573387
_symmetry_Int_Tables_number   140
_chemical_formula_structural   PdPb2
_chemical_formula_sum   'Pd2 Pb4'
_cell_volume   146.80265692
_cell_formula_units_Z   2
loop_
 _symmetry_equiv_pos_site_id
 _symmetry_equiv_pos_as_xyz
  1  'x, y, z'
  2  '-x, -y, -z'
  3  'x-z, x, x-y'
  4  '-x+z, -x, -x+y'
  5  'y-z, x-z, -z'
  6  '-y+z, -x+z, z'
  7  'y, y-z, -x+y'
  8  '-y, -y+z, x-y'
  9  '-y+z+1/2, -y+1/2, x-y'
  10  'y-z+1/2, y+1/2, -x+y'
  11  '-y+1/2, -x+1/2, -z'
  12  'y+1/2, x+1/2, z'
  13  '-x+1/2, -x+z+1/2, -x+y'
  14  'x+1/2, x-z+1/2, x-y'
  15  '-x+z+1/2, -y+z+1/2, z'
  16  'x-z+1/2, y-z+1/2, -z'
loop_
 _atom_site_type_symbol
 _atom_site_label
 _atom_site_symmetry_multiplicity
 _atom_site_fract_x
 _atom_site_fract_y
 _atom_site_fract_z
 _atom_site_occupancy
  Pd  Pd0  2  0.25000000  0.25000000  0.00000000  1.0
  Pb  Pb1  4  0.16327900  0.33672100  0.50000000  1.0
