# generated using pymatgen
data_Zr5Pb3
_symmetry_space_group_name_H-M   P6_3/mcm
_cell_length_a   6.21382500
_cell_length_b   8.99217400
_cell_length_c   8.99217476
_cell_angle_alpha   119.99999720
_cell_angle_beta   90.00000000
_cell_angle_gamma   90.00000000
_symmetry_Int_Tables_number   193
_chemical_formula_structural   Zr5Pb3
_chemical_formula_sum   'Zr10 Pb6'
_cell_volume   435.13007608
_cell_formula_units_Z   2
loop_
 _symmetry_equiv_pos_site_id
 _symmetry_equiv_pos_as_xyz
  1  'x, y, z'
  2  '-x, -y, -z'
  3  'x+1/2, y-z, y'
  4  '-x+1/2, -y+z, -y'
  5  'x, -z, y-z'
  6  '-x, z, -y+z'
  7  'x+1/2, -y, -z'
  8  '-x+1/2, y, z'
  9  'x, -y+z, -y'
  10  '-x, y-z, y'
  11  'x+1/2, z, -y+z'
  12  '-x+1/2, -z, y-z'
  13  '-x, -z, -y'
  14  'x, z, y'
  15  '-x+1/2, -y, -y+z'
  16  'x+1/2, y, y-z'
  17  '-x, -y+z, z'
  18  'x, y-z, -z'
  19  '-x+1/2, z, y'
  20  'x+1/2, -z, -y'
  21  '-x, y, y-z'
  22  'x, -y, -y+z'
  23  '-x+1/2, y-z, -z'
  24  'x+1/2, -y+z, z'
loop_
 _atom_site_type_symbol
 _atom_site_label
 _atom_site_symmetry_multiplicity
 _atom_site_fract_x
 _atom_site_fract_y
 _atom_site_fract_z
 _atom_site_occupancy
  Zr  Zr0  6  0.25000000  0.00000000  0.75238800  1.0
  Zr  Zr1  4  0.00000000  0.33333333  0.66666667  1.0
  Pb  Pb2  6  0.25000000  0.00000000  0.38964300  1.0
