# generated using pymatgen
data_SiPd
_symmetry_space_group_name_H-M   I4/mcm
_cell_length_a   4.64895600
_cell_length_b   6.30763884
_cell_length_c   6.30763884
_cell_angle_alpha   82.19480149
_cell_angle_beta   68.37575691
_cell_angle_gamma   68.37575691
_symmetry_Int_Tables_number   140
_chemical_formula_structural   SiPd
_chemical_formula_sum   'Si4 Pd4'
_cell_volume   159.84556447
_cell_formula_units_Z   4
loop_
 _symmetry_equiv_pos_site_id
 _symmetry_equiv_pos_as_xyz
  1  'x, y, z'
  2  '-x, -y, -z'
  3  'x+y, z, -y'
  4  '-x-y, -z, y'
  5  'x+y+z, -y, -z'
  6  '-x-y-z, y, z'
  7  'x+z, -z, y'
  8  '-x-z, z, -y'
  9  '-x-y-z+1/2, z, y'
  10  'x+y+z+1/2, -z, -y'
  11  '-x-z+1/2, -y, z'
  12  'x+z+1/2, y, -z'
  13  '-x+1/2, -z, -y'
  14  'x+1/2, z, y'
  15  '-x-y+1/2, y, -z'
  16  'x+y+1/2, -y, z'
loop_
 _atom_site_type_symbol
 _atom_site_label
 _atom_site_symmetry_multiplicity
 _atom_site_fract_x
 _atom_site_fract_y
 _atom_site_fract_z
 _atom_site_occupancy
  Si  Si0  4  0.11079400  0.27841100  0.50000000  1.0
  Pd  Pd1  4  0.17833200  0.50000000  0.14333600  1.0
