# generated using pymatgen
data_Sn2Pd
_symmetry_space_group_name_H-M   I4_1/acd
_cell_length_a   6.60156800
_cell_length_b   6.60156800
_cell_length_c   13.25238475
_cell_angle_alpha   104.42254234
_cell_angle_beta   104.42254234
_cell_angle_gamma   90.00000001
_symmetry_Int_Tables_number   142
_chemical_formula_structural   Sn2Pd
_chemical_formula_sum   'Sn16 Pd8'
_cell_volume   540.53307876
_cell_formula_units_Z   8
loop_
 _symmetry_equiv_pos_site_id
 _symmetry_equiv_pos_as_xyz
  1  'x, y, z'
  2  '-y+z+3/4, x+1/4, z+1/2'
  3  '-x+z, -y+z, z'
  4  'y+3/4, -x+z+1/4, z+1/2'
  5  'x-z+1/4, -y+3/4, -z+1/2'
  6  '-y+1/2, -x+1/2, -z'
  7  '-x+1/4, y-z+3/4, -z+1/2'
  8  'y-z+1/2, x-z+1/2, -z'
  9  '-x+3/4, -y+1/4, -z+1/2'
  10  'y-z, -x, -z'
  11  'x-z+3/4, y-z+1/4, -z+1/2'
  12  '-y, x-z, -z'
  13  '-x+z+1/2, y+1/2, z'
  14  'y+1/4, x+3/4, z+1/2'
  15  'x+1/2, -y+z+1/2, z'
  16  '-y+z+1/4, -x+z+3/4, z+1/2'
loop_
 _atom_site_type_symbol
 _atom_site_label
 _atom_site_symmetry_multiplicity
 _atom_site_fract_x
 _atom_site_fract_y
 _atom_site_fract_z
 _atom_site_occupancy
  Sn  Sn0  8  0.09140800  0.40859200  0.50000000  1.0
  Sn  Sn1  8  0.12500000  0.12749700  0.75000000  1.0
  Pd  Pd2  8  0.05839600  0.05839600  0.11679200  1.0
