# generated using pymatgen
data_PdSe
_symmetry_space_group_name_H-M   P4_2/mbc
_cell_length_a   7.13322200
_cell_length_b   11.79151400
_cell_length_c   11.79151400
_cell_angle_alpha   90.00000000
_cell_angle_beta   90.00000000
_cell_angle_gamma   90.00000000
_symmetry_Int_Tables_number   135
_chemical_formula_structural   PdSe
_chemical_formula_sum   'Pd24 Se24'
_cell_volume   991.80177744
_cell_formula_units_Z   24
loop_
 _symmetry_equiv_pos_site_id
 _symmetry_equiv_pos_as_xyz
  1  'x, y, z'
  2  '-x, -y, -z'
  3  'x+1/2, -z, y'
  4  '-x+1/2, z, -y'
  5  'x, -y, -z'
  6  '-x, y, z'
  7  'x+1/2, z, -y'
  8  '-x+1/2, -z, y'
  9  '-x, y+1/2, -z+1/2'
  10  'x, -y+1/2, z+1/2'
  11  '-x+1/2, -z+1/2, -y+1/2'
  12  'x+1/2, z+1/2, y+1/2'
  13  '-x, -y+1/2, z+1/2'
  14  'x, y+1/2, -z+1/2'
  15  '-x+1/2, z+1/2, y+1/2'
  16  'x+1/2, -z+1/2, -y+1/2'
loop_
 _atom_site_type_symbol
 _atom_site_label
 _atom_site_symmetry_multiplicity
 _atom_site_fract_x
 _atom_site_fract_y
 _atom_site_fract_z
 _atom_site_occupancy
  Pd  Pd0  8  0.00000000  0.12997600  0.04547800  1.0
  Pd  Pd1  8  0.00000000  0.14261800  0.73108700  1.0
  Pd  Pd2  8  0.25000000  0.11309100  0.38690900  1.0
  Se  Se3  16  0.22363100  0.17694300  0.88981300  1.0
  Se  Se4  8  0.25000000  0.09634700  0.59634700  1.0
