# generated using pymatgen
data_PdSe2
_symmetry_space_group_name_H-M   Pbca
_cell_length_a   5.79441800
_cell_length_b   5.94542200
_cell_length_c   8.58506100
_cell_angle_alpha   90.00000000
_cell_angle_beta   90.00000000
_cell_angle_gamma   90.00000000
_symmetry_Int_Tables_number   61
_chemical_formula_structural   PdSe2
_chemical_formula_sum   'Pd4 Se8'
_cell_volume   295.75758575
_cell_formula_units_Z   4
loop_
 _symmetry_equiv_pos_site_id
 _symmetry_equiv_pos_as_xyz
  1  'x, y, z'
  2  '-x, -y, -z'
  3  '-x+1/2, -y, z+1/2'
  4  'x+1/2, y, -z+1/2'
  5  'x+1/2, -y+1/2, -z'
  6  '-x+1/2, y+1/2, z'
  7  '-x, y+1/2, -z+1/2'
  8  'x, -y+1/2, z+1/2'
loop_
 _atom_site_type_symbol
 _atom_site_label
 _atom_site_symmetry_multiplicity
 _atom_site_fract_x
 _atom_site_fract_y
 _atom_site_fract_z
 _atom_site_occupancy
  Pd  Pd0  4  0.00000000  0.00000000  0.00000000  1.0
  Se  Se1  8  0.11130000  0.11935600  0.41410900  1.0
