# generated using pymatgen
data_SnPd2
_symmetry_space_group_name_H-M   Pnma
_cell_length_a   4.33008500
_cell_length_b   5.72798900
_cell_length_c   8.38948400
_cell_angle_alpha   90.00000000
_cell_angle_beta   90.00000000
_cell_angle_gamma   90.00000000
_symmetry_Int_Tables_number   62
_chemical_formula_structural   SnPd2
_chemical_formula_sum   'Sn4 Pd8'
_cell_volume   208.08168072
_cell_formula_units_Z   4
loop_
 _symmetry_equiv_pos_site_id
 _symmetry_equiv_pos_as_xyz
  1  'x, y, z'
  2  '-x, -y, -z'
  3  '-x, -y+1/2, z+1/2'
  4  'x, y+1/2, -z+1/2'
  5  '-x+1/2, y+1/2, -z+1/2'
  6  'x+1/2, -y+1/2, z+1/2'
  7  'x+1/2, -y, -z'
  8  '-x+1/2, y, z'
loop_
 _atom_site_type_symbol
 _atom_site_label
 _atom_site_symmetry_multiplicity
 _atom_site_fract_x
 _atom_site_fract_y
 _atom_site_fract_z
 _atom_site_occupancy
  Sn  Sn0  4  0.25000000  0.20170000  0.10665500  1.0
  Pd  Pd1  4  0.25000000  0.04738800  0.78442700  1.0
  Pd  Pd2  4  0.25000000  0.17436700  0.43236800  1.0
