# generated using pymatgen
data_YTm3(SnPd2)4
_symmetry_space_group_name_H-M   R-3m
_cell_length_a   4.79816474
_cell_length_b   4.79816474
_cell_length_c   15.78993068
_cell_angle_alpha   81.26077294
_cell_angle_beta   81.26077294
_cell_angle_gamma   59.99998976
_symmetry_Int_Tables_number   166
_chemical_formula_structural   YTm3(SnPd2)4
_chemical_formula_sum   'Y1 Tm3 Sn4 Pd8'
_cell_volume   309.93619637
_cell_formula_units_Z   1
loop_
 _symmetry_equiv_pos_site_id
 _symmetry_equiv_pos_as_xyz
  1  'x, y, z'
  2  '-x, -y, -z'
  3  '-x-y-z, x, z'
  4  'x+y+z, -x, -z'
  5  'y, -x-y-z, z'
  6  '-y, x+y+z, -z'
  7  '-x, x+y+z, -z'
  8  'x, -x-y-z, z'
  9  'x+y+z, -y, -z'
  10  '-x-y-z, y, z'
  11  '-y, -x, -z'
  12  'y, x, z'
loop_
 _atom_site_type_symbol
 _atom_site_label
 _atom_site_symmetry_multiplicity
 _atom_site_fract_x
 _atom_site_fract_y
 _atom_site_fract_z
 _atom_site_occupancy
  Y  Y0  1  0.50000000  0.50000000  0.50000000  1.0
  Tm  Tm1  2  0.25000700  0.25000700  0.24997900  1.0
  Tm  Tm2  1  0.00000000  0.00000000  0.00000000  1.0
  Sn  Sn3  2  0.12489300  0.12489300  0.62532100  1.0
  Sn  Sn4  2  0.37499700  0.37499700  0.87500900  1.0
  Pd  Pd5  2  0.06248300  0.06248300  0.81255100  1.0
  Pd  Pd6  2  0.18799100  0.18799100  0.43602700  1.0
  Pd  Pd7  2  0.31252500  0.31252500  0.06242500  1.0
  Pd  Pd8  2  0.43696700  0.43696700  0.68909900  1.0
