# generated using pymatgen
data_TePd3
_symmetry_space_group_name_H-M   P4/mmm
_cell_length_a   3.51623230
_cell_length_b   3.51623230
_cell_length_c   5.69533359
_cell_angle_alpha   90.00000000
_cell_angle_beta   90.00000000
_cell_angle_gamma   89.71972476
_symmetry_Int_Tables_number   123
_chemical_formula_structural   TePd3
_chemical_formula_sum   'Te1 Pd3'
_cell_volume   70.41563318
_cell_formula_units_Z   1
loop_
 _symmetry_equiv_pos_site_id
 _symmetry_equiv_pos_as_xyz
  1  'x, y, z'
  2  '-x, -y, -z'
  3  '-y, x, z'
  4  'y, -x, -z'
  5  '-x, -y, z'
  6  'x, y, -z'
  7  'y, -x, z'
  8  '-y, x, -z'
  9  'x, -y, -z'
  10  '-x, y, z'
  11  '-y, -x, -z'
  12  'y, x, z'
  13  '-x, y, -z'
  14  'x, -y, z'
  15  'y, x, -z'
  16  '-y, -x, z'
loop_
 _atom_site_type_symbol
 _atom_site_label
 _atom_site_symmetry_multiplicity
 _atom_site_fract_x
 _atom_site_fract_y
 _atom_site_fract_z
 _atom_site_occupancy
  Te  Te0  1  0.00000000  0.00000000  0.00000000  1.0
  Pd  Pd1  2  0.50000000  0.50000000  0.25191000  1.0
  Pd  Pd2  1  0.00000000  0.00000000  0.50000000  1.0
