# generated using pymatgen
data_Ta4Te16Pd3
_symmetry_space_group_name_H-M   C2/m
_cell_length_a   3.78856400
_cell_length_b   11.11121090
_cell_length_c   16.07646884
_cell_angle_alpha   81.30295513
_cell_angle_beta   83.23314767
_cell_angle_gamma   80.18404776
_symmetry_Int_Tables_number   12
_chemical_formula_structural   Ta4Te16Pd3
_chemical_formula_sum   'Ta4 Te16 Pd3'
_cell_volume   656.22253555
_cell_formula_units_Z   1
loop_
 _symmetry_equiv_pos_site_id
 _symmetry_equiv_pos_as_xyz
  1  'x, y, z'
  2  '-x, -y, -z'
  3  'x+y+z, -y, -z'
  4  '-x-y-z, y, z'
loop_
 _atom_site_type_symbol
 _atom_site_label
 _atom_site_symmetry_multiplicity
 _atom_site_fract_x
 _atom_site_fract_y
 _atom_site_fract_z
 _atom_site_occupancy
  Ta  Ta0  2  0.08278100  0.68335900  0.15107900  1.0
  Ta  Ta1  2  0.20816300  0.16661100  0.41706300  1.0
  Te  Te2  2  0.03846300  0.04425600  0.87881800  1.0
  Te  Te3  2  0.07715200  0.53022100  0.31547500  1.0
  Te  Te4  2  0.19243400  0.02675200  0.58838000  1.0
  Te  Te5  2  0.27466500  0.20255500  0.24811500  1.0
  Te  Te6  2  0.31375200  0.50749400  0.86500200  1.0
  Te  Te7  2  0.37897200  0.26034400  0.98171200  1.0
  Te  Te8  2  0.39851600  0.68509300  0.51787500  1.0
  Te  Te9  2  0.48245100  0.76987600  0.26522200  1.0
  Pd  Pd10  2  0.32903100  0.64951300  0.69242500  1.0
  Pd  Pd11  1  0.50000000  0.00000000  0.00000000  1.0
