# generated using pymatgen
data_Pd14Se3.5
_symmetry_space_group_name_H-M   P2_1/c
_cell_length_a   5.44420500
_cell_length_b   5.62398300
_cell_length_c   9.57741508
_cell_angle_alpha   93.64791380
_cell_angle_beta   90.00000000
_cell_angle_gamma   90.00000000
_symmetry_Int_Tables_number   14
_chemical_formula_structural   Pd14Se3.5
_chemical_formula_sum   'Pd14 Se3.5'
_cell_volume   292.64826238
_cell_formula_units_Z   1
loop_
 _symmetry_equiv_pos_site_id
 _symmetry_equiv_pos_as_xyz
  1  'x, y, z'
  2  '-x, -y, -z'
  3  'x+1/2, -y, -z+1/2'
  4  '-x+1/2, y, z+1/2'
loop_
 _atom_site_type_symbol
 _atom_site_label
 _atom_site_symmetry_multiplicity
 _atom_site_fract_x
 _atom_site_fract_y
 _atom_site_fract_z
 _atom_site_occupancy
  Pd  Pd0  4  0.08143000  0.20601400  0.42721900  1.0
  Pd  Pd1  4  0.09866800  0.96742100  0.14863100  1.0
  Pd  Pd2  4  0.15732000  0.42656100  0.70798900  1.0
  Pd  Pd3  2  0.00000000  0.50000000  0.00000000  1.0
  Se  Se4  4  0.22811700  0.77411200  0.37831800  0.875
