# generated using pymatgen
data_Pd4Se
_symmetry_space_group_name_H-M   P-42_1c
_cell_length_a   5.31480700
_cell_length_b   5.31480700
_cell_length_c   5.76239700
_cell_angle_alpha   90.00000000
_cell_angle_beta   90.00000000
_cell_angle_gamma   90.00000000
_symmetry_Int_Tables_number   114
_chemical_formula_structural   Pd4Se
_chemical_formula_sum   'Pd8 Se2'
_cell_volume   162.77142753
_cell_formula_units_Z   2
loop_
 _symmetry_equiv_pos_site_id
 _symmetry_equiv_pos_as_xyz
  1  'x, y, z'
  2  'y, -x, -z'
  3  '-x, -y, z'
  4  '-y, x, -z'
  5  'x+1/2, -y+1/2, -z+1/2'
  6  'y+1/2, x+1/2, z+1/2'
  7  '-x+1/2, y+1/2, -z+1/2'
  8  '-y+1/2, -x+1/2, z+1/2'
loop_
 _atom_site_type_symbol
 _atom_site_label
 _atom_site_symmetry_multiplicity
 _atom_site_fract_x
 _atom_site_fract_y
 _atom_site_fract_z
 _atom_site_occupancy
  Pd  Pd0  8  0.12770600  0.73240900  0.34551900  1.0
  Se  Se1  2  0.00000000  0.00000000  0.00000000  1.0
