# generated using pymatgen
data_Pd4S
_symmetry_space_group_name_H-M   P-42_1c
_cell_length_a   5.19706300
_cell_length_b   5.19706300
_cell_length_c   5.66615300
_cell_angle_alpha   90.00000000
_cell_angle_beta   90.00000000
_cell_angle_gamma   90.00000000
_symmetry_Int_Tables_number   114
_chemical_formula_structural   Pd4S
_chemical_formula_sum   'Pd8 S2'
_cell_volume   153.03975449
_cell_formula_units_Z   2
loop_
 _symmetry_equiv_pos_site_id
 _symmetry_equiv_pos_as_xyz
  1  'x, y, z'
  2  'y, -x, -z'
  3  '-x, -y, z'
  4  '-y, x, -z'
  5  'x+1/2, -y+1/2, -z+1/2'
  6  'y+1/2, x+1/2, z+1/2'
  7  '-x+1/2, y+1/2, -z+1/2'
  8  '-y+1/2, -x+1/2, z+1/2'
loop_
 _atom_site_type_symbol
 _atom_site_label
 _atom_site_symmetry_multiplicity
 _atom_site_fract_x
 _atom_site_fract_y
 _atom_site_fract_z
 _atom_site_occupancy
  Pd  Pd0  8  0.14681800  0.73246000  0.34261800  1.0
  S  S1  2  0.00000000  0.00000000  0.00000000  1.0
