# generated using pymatgen
data_TePd4
_symmetry_space_group_name_H-M   F-43m
_cell_length_a   8.84438838
_cell_length_b   8.84438838
_cell_length_c   8.84438838
_cell_angle_alpha   60.00000000
_cell_angle_beta   60.00000000
_cell_angle_gamma   60.00000000
_symmetry_Int_Tables_number   216
_chemical_formula_structural   TePd4
_chemical_formula_sum   'Te5 Pd20'
_cell_volume   489.20221880
_cell_formula_units_Z   5
loop_
 _symmetry_equiv_pos_site_id
 _symmetry_equiv_pos_as_xyz
  1  'x, y, z'
  2  'y, -x-y-z, x'
  3  '-x-y-z, z, y'
  4  'z, x, -x-y-z'
  5  'y, x, -x-y-z'
  6  '-x-y-z, y, z'
  7  'z, -x-y-z, x'
  8  'x, z, y'
  9  'z, y, -x-y-z'
  10  'x, -x-y-z, z'
  11  'y, z, x'
  12  '-x-y-z, x, y'
  13  '-x-y-z, x, z'
  14  'z, y, x'
  15  'x, -x-y-z, y'
  16  'y, z, -x-y-z'
  17  '-x-y-z, y, x'
  18  'z, -x-y-z, y'
  19  'x, z, -x-y-z'
  20  'y, x, z'
  21  'z, x, y'
  22  'x, y, -x-y-z'
  23  'y, -x-y-z, z'
  24  '-x-y-z, z, x'
loop_
 _atom_site_type_symbol
 _atom_site_label
 _atom_site_symmetry_multiplicity
 _atom_site_fract_x
 _atom_site_fract_y
 _atom_site_fract_z
 _atom_site_occupancy
  Te  Te0  4  0.11612600  0.62795800  0.62795800  1.0
  Te  Te1  1  0.25000000  0.25000000  0.25000000  1.0
  Pd  Pd2  6  0.26224100  0.26224100  0.73775900  1.0
  Pd  Pd3  6  0.50999400  0.50999400  0.99000600  1.0
  Pd  Pd4  4  0.24016500  0.91994500  0.91994500  1.0
  Pd  Pd5  4  0.36597200  0.36597200  0.90208400  1.0
