# generated using pymatgen
data_Th4.8Pd8
_symmetry_space_group_name_H-M   R-3
_cell_length_a   5.84168067
_cell_length_b   8.22437690
_cell_length_c   8.22437690
_cell_angle_alpha   114.57695094
_cell_angle_beta   103.69556451
_cell_angle_gamma   103.69556451
_symmetry_Int_Tables_number   148
_chemical_formula_structural   Th4.8Pd8
_chemical_formula_sum   'Th4.8 Pd8'
_cell_volume   323.01326836
_cell_formula_units_Z   1
loop_
 _symmetry_equiv_pos_site_id
 _symmetry_equiv_pos_as_xyz
  1  'x, y, z'
  2  '-x, -y, -z'
  3  'x-z, -z, y-z'
  4  '-x+z, z, -y+z'
  5  'x-y, -y+z, -y'
  6  '-x+y, y-z, y'
loop_
 _atom_site_type_symbol
 _atom_site_label
 _atom_site_symmetry_multiplicity
 _atom_site_fract_x
 _atom_site_fract_y
 _atom_site_fract_z
 _atom_site_occupancy
  Th  Th0  6  0.02998700  0.62153300  0.75139000  0.8
  Pd  Pd1  6  0.06033900  0.83476400  0.49994500  1.0
  Pd  Pd2  1  0.00000000  0.00000000  0.00000000  1.0
  Pd  Pd3  1  0.50000000  0.00000000  0.00000000  1.0
