# generated using pymatgen
data_Pr
_symmetry_space_group_name_H-M   R-3m
_cell_length_a   3.74340941
_cell_length_b   3.74340941
_cell_length_c   9.30888381
_cell_angle_alpha   78.40066884
_cell_angle_beta   78.40066884
_cell_angle_gamma   60.00001042
_symmetry_Int_Tables_number   166
_chemical_formula_structural   Pr
_chemical_formula_sum   Pr3
_cell_volume   109.88302996
_cell_formula_units_Z   3
loop_
 _symmetry_equiv_pos_site_id
 _symmetry_equiv_pos_as_xyz
  1  'x, y, z'
  2  '-x, -y, -z'
  3  '-x-y-z, x, z'
  4  'x+y+z, -x, -z'
  5  'y, -x-y-z, z'
  6  '-y, x+y+z, -z'
  7  '-x, x+y+z, -z'
  8  'x, -x-y-z, z'
  9  'x+y+z, -y, -z'
  10  '-x-y-z, y, z'
  11  '-y, -x, -z'
  12  'y, x, z'
loop_
 _atom_site_type_symbol
 _atom_site_label
 _atom_site_symmetry_multiplicity
 _atom_site_fract_x
 _atom_site_fract_y
 _atom_site_fract_z
 _atom_site_occupancy
  Pr  Pr0  2  0.22271900  0.22271900  0.33184300  1.0
  Pr  Pr1  1  0.00000000  0.00000000  0.00000000  1.0
