# generated using pymatgen
data_Pr
_symmetry_space_group_name_H-M   Fm-3m
_cell_length_a   3.71218600
_cell_length_b   3.71385850
_cell_length_c   3.71414912
_cell_angle_alpha   119.90991057
_cell_angle_beta   119.98251716
_cell_angle_gamma   90.00000000
_symmetry_Int_Tables_number   225
_chemical_formula_structural   Pr
_chemical_formula_sum   Pr1
_cell_volume   36.26635104
_cell_formula_units_Z   1
loop_
 _symmetry_equiv_pos_site_id
 _symmetry_equiv_pos_as_xyz
  1  'x, y, z'
  2  '-x, -y, -z'
  3  '-y+z, x, z'
  4  'y-z, -x, -z'
  5  '-x+z, -y+z, z'
  6  'x-z, y-z, -z'
  7  'y, -x+z, z'
  8  '-y, x-z, -z'
  9  '-y, -x, -z'
  10  'y, x, z'
  11  '-x, y-z, -z'
  12  'x, -y+z, z'
  13  'y-z, x-z, -z'
  14  '-y+z, -x+z, z'
  15  'x-z, -y, -z'
  16  '-x+z, y, z'
  17  'x, x-z, x+y-z'
  18  '-x, -x+z, -x-y+z'
  19  '-y+z, -y, x-y'
  20  'y-z, y, -x+y'
  21  '-x+z, -x, -x-y+z'
  22  'x-z, x, x+y-z'
  23  'y, y-z, -x+y'
  24  '-y, -y+z, x-y'
  25  '-y, -y+z, -x-y+z'
  26  'y, y-z, x+y-z'
  27  '-x, -x+z, -x+y'
  28  'x, x-z, x-y'
  29  'y-z, y, x+y-z'
  30  '-y+z, -y, -x-y+z'
  31  'x-z, x, x-y'
  32  '-x+z, -x, -x+y'
  33  'x, -y+z, x-y'
  34  '-x, y-z, -x+y'
  35  '-y+z, -x+z, -x-y+z'
  36  'y-z, x-z, x+y-z'
  37  '-x+z, y, -x+y'
  38  'x-z, -y, x-y'
  39  'y, x, x+y-z'
  40  '-y, -x, -x-y+z'
  41  '-y, x-z, x-y'
  42  'y, -x+z, -x+y'
  43  '-x, -y, -x-y+z'
  44  'x, y, x+y-z'
  45  'y-z, -x, -x+y'
  46  '-y+z, x, x-y'
  47  'x-z, y-z, x+y-z'
  48  '-x+z, -y+z, -x-y+z'
loop_
 _atom_site_type_symbol
 _atom_site_label
 _atom_site_symmetry_multiplicity
 _atom_site_fract_x
 _atom_site_fract_y
 _atom_site_fract_z
 _atom_site_occupancy
  Pr  Pr0  1  0.50000000  0.50000000  0.00000000  1.0
