# generated using pymatgen
data_Pr
_symmetry_space_group_name_H-M   P3_221
_cell_length_a   3.71320000
_cell_length_b   3.71319954
_cell_length_c   9.06530400
_cell_angle_alpha   90.00000000
_cell_angle_beta   90.00000000
_cell_angle_gamma   120.00000409
_symmetry_Int_Tables_number   154
_chemical_formula_structural   Pr
_chemical_formula_sum   Pr3
_cell_volume   108.24544148
_cell_formula_units_Z   3
loop_
 _symmetry_equiv_pos_site_id
 _symmetry_equiv_pos_as_xyz
  1  'x, y, z'
  2  '-y, x-y, z+2/3'
  3  '-x+y, -x, z+1/3'
  4  'y, x, -z+2/3'
  5  'x-y, -y, -z'
  6  '-x, -x+y, -z+1/3'
loop_
 _atom_site_type_symbol
 _atom_site_label
 _atom_site_symmetry_multiplicity
 _atom_site_fract_x
 _atom_site_fract_y
 _atom_site_fract_z
 _atom_site_occupancy
  Pr  Pr0  3  0.00000000  0.31911500  0.66666667  1.0
