# generated using pymatgen
data_Pr2S3
_symmetry_space_group_name_H-M   Pnma
_cell_length_a   4.09491700
_cell_length_b   7.56249200
_cell_length_c   15.78808100
_cell_angle_alpha   90.00000000
_cell_angle_beta   90.00000000
_cell_angle_gamma   90.00000000
_symmetry_Int_Tables_number   62
_chemical_formula_structural   Pr2S3
_chemical_formula_sum   'Pr8 S12'
_cell_volume   488.92177251
_cell_formula_units_Z   4
loop_
 _symmetry_equiv_pos_site_id
 _symmetry_equiv_pos_as_xyz
  1  'x, y, z'
  2  '-x, -y, -z'
  3  '-x, -y+1/2, z+1/2'
  4  'x, y+1/2, -z+1/2'
  5  '-x+1/2, y+1/2, -z+1/2'
  6  'x+1/2, -y+1/2, z+1/2'
  7  'x+1/2, -y, -z'
  8  '-x+1/2, y, z'
loop_
 _atom_site_type_symbol
 _atom_site_label
 _atom_site_symmetry_multiplicity
 _atom_site_fract_x
 _atom_site_fract_y
 _atom_site_fract_z
 _atom_site_occupancy
  Pr  Pr0  4  0.25000000  0.14486500  0.79552000  1.0
  Pr  Pr1  4  0.25000000  0.26447400  0.04408300  1.0
  S  S2  4  0.25000000  0.00976500  0.60937300  1.0
  S  S3  4  0.25000000  0.14532000  0.21896100  1.0
  S  S4  4  0.25000000  0.37372700  0.43251600  1.0
