# generated using pymatgen
data_Pt2.19W0.81
_symmetry_space_group_name_H-M   Immm
_cell_length_a   2.80670200
_cell_length_b   3.96851800
_cell_length_c   4.83953462
_cell_angle_alpha   114.20548131
_cell_angle_beta   106.85654528
_cell_angle_gamma   89.99999999
_symmetry_Int_Tables_number   71
_chemical_formula_structural   Pt2.19W0.81
_chemical_formula_sum   'Pt2.19 W0.81'
_cell_volume   46.61465860
_cell_formula_units_Z   1
loop_
 _symmetry_equiv_pos_site_id
 _symmetry_equiv_pos_as_xyz
  1  'x, y, z'
  2  '-x, -y, -z'
  3  '-x+z, -y+z, z'
  4  'x-z, y-z, -z'
  5  'x-z, -y, -z'
  6  '-x+z, y, z'
  7  '-x, y-z, -z'
  8  'x, -y+z, z'
loop_
 _atom_site_type_symbol
 _atom_site_label
 _atom_site_symmetry_multiplicity
 _atom_site_fract_x
 _atom_site_fract_y
 _atom_site_fract_z
 _atom_site_occupancy
  Pt  Pt0  2  0.33700900  0.33700900  0.67401800  1.0
  W  W1  1  0.00000000  0.00000000  0.00000000  0.81
  Pt  Pt2  1  0.00000000  0.00000000  0.00000000  0.19
