# generated using pymatgen
data_Sn4Pt
_symmetry_space_group_name_H-M   Ccce
_cell_length_a   6.51897600
_cell_length_b   6.53413400
_cell_length_c   6.64754194
_cell_angle_alpha   60.56275807
_cell_angle_beta   90.00000000
_cell_angle_gamma   90.00000000
_symmetry_Int_Tables_number   68
_chemical_formula_structural   Sn4Pt
_chemical_formula_sum   'Sn8 Pt2'
_cell_volume   246.60056869
_cell_formula_units_Z   2
loop_
 _symmetry_equiv_pos_site_id
 _symmetry_equiv_pos_as_xyz
  1  'x, y, z'
  2  'x, -y, -z'
  3  '-x, y+z, -z'
  4  '-x, -y-z, z'
  5  '-x+1/2, -y+1/2, -z'
  6  '-x+1/2, y+1/2, z'
  7  'x+1/2, -y-z+1/2, z'
  8  'x+1/2, y+z+1/2, -z'
loop_
 _atom_site_type_symbol
 _atom_site_label
 _atom_site_symmetry_multiplicity
 _atom_site_fract_x
 _atom_site_fract_y
 _atom_site_fract_z
 _atom_site_occupancy
  Sn  Sn0  8  0.16662600  0.45911700  0.74919400  1.0
  Pt  Pt1  2  0.00000000  0.00000000  0.00000000  1.0
