# generated using pymatgen
data_SbTePt
_symmetry_space_group_name_H-M   P2_13
_cell_length_a   6.65008000
_cell_length_b   6.65008000
_cell_length_c   6.65008000
_cell_angle_alpha   90.00000000
_cell_angle_beta   90.00000000
_cell_angle_gamma   90.00000000
_symmetry_Int_Tables_number   198
_chemical_formula_structural   SbTePt
_chemical_formula_sum   'Sb4 Te4 Pt4'
_cell_volume   294.09023853
_cell_formula_units_Z   4
loop_
 _symmetry_equiv_pos_site_id
 _symmetry_equiv_pos_as_xyz
  1  'x, y, z'
  2  '-x+1/2, -y, z+1/2'
  3  'x+1/2, -y+1/2, -z'
  4  '-x, y+1/2, -z+1/2'
  5  'z, x, y'
  6  'z+1/2, -x+1/2, -y'
  7  '-z, x+1/2, -y+1/2'
  8  '-z+1/2, -x, y+1/2'
  9  'y, z, x'
  10  '-y, z+1/2, -x+1/2'
  11  '-y+1/2, -z, x+1/2'
  12  'y+1/2, -z+1/2, -x'
loop_
 _atom_site_type_symbol
 _atom_site_label
 _atom_site_symmetry_multiplicity
 _atom_site_fract_x
 _atom_site_fract_y
 _atom_site_fract_z
 _atom_site_occupancy
  Sb  Sb0  4  0.12868500  0.87131500  0.37131500  1.0
  Te  Te1  4  0.12747700  0.62747700  0.87252300  1.0
  Pt  Pt2  4  0.00470100  0.00470100  0.00470100  1.0
