# generated using pymatgen
data_ThPt
_symmetry_space_group_name_H-M   Cmcm
_cell_length_a   3.93381400
_cell_length_b   4.48305800
_cell_length_c   5.97347620
_cell_angle_alpha   90.00000000
_cell_angle_beta   109.22468161
_cell_angle_gamma   90.00000000
_symmetry_Int_Tables_number   63
_chemical_formula_structural   ThPt
_chemical_formula_sum   'Th2 Pt2'
_cell_volume   99.47071375
_cell_formula_units_Z   2
loop_
 _symmetry_equiv_pos_site_id
 _symmetry_equiv_pos_as_xyz
  1  'x, y, z'
  2  '-x, -y, -z'
  3  '-x, y+1/2, -z'
  4  'x, -y+1/2, z'
  5  'x-z, -y, -z'
  6  '-x+z, y, z'
  7  '-x+z, -y+1/2, z'
  8  'x-z, y+1/2, -z'
loop_
 _atom_site_type_symbol
 _atom_site_label
 _atom_site_symmetry_multiplicity
 _atom_site_fract_x
 _atom_site_fract_y
 _atom_site_fract_z
 _atom_site_occupancy
  Th  Th0  2  0.13644000  0.75000000  0.27288000  1.0
  Pt  Pt1  2  0.40384500  0.75000000  0.80769000  1.0
