# generated using pymatgen
data_ZrPt
_symmetry_space_group_name_H-M   Cmcm
_cell_length_a   3.43738000
_cell_length_b   4.34382800
_cell_length_c   5.49822898
_cell_angle_alpha   90.00000000
_cell_angle_beta   108.21537011
_cell_angle_gamma   90.00000000
_symmetry_Int_Tables_number   63
_chemical_formula_structural   ZrPt
_chemical_formula_sum   'Zr2 Pt2'
_cell_volume   77.98220221
_cell_formula_units_Z   2
loop_
 _symmetry_equiv_pos_site_id
 _symmetry_equiv_pos_as_xyz
  1  'x, y, z'
  2  '-x, -y, -z'
  3  '-x, y+1/2, -z'
  4  'x, -y+1/2, z'
  5  'x-z, -y, -z'
  6  '-x+z, y, z'
  7  '-x+z, -y+1/2, z'
  8  'x-z, y+1/2, -z'
loop_
 _atom_site_type_symbol
 _atom_site_label
 _atom_site_symmetry_multiplicity
 _atom_site_fract_x
 _atom_site_fract_y
 _atom_site_fract_z
 _atom_site_occupancy
  Zr  Zr0  2  0.14119300  0.25000000  0.28238600  1.0
  Pt  Pt1  2  0.40848500  0.25000000  0.81697000  1.0
