# generated using pymatgen
data_Sr1.5Sb3Pt3
_symmetry_space_group_name_H-M   P4/mmm
_cell_length_a   5.88421900
_cell_length_b   5.88421900
_cell_length_c   21.63524800
_cell_angle_alpha   90.00000000
_cell_angle_beta   90.00000000
_cell_angle_gamma   90.00000000
_symmetry_Int_Tables_number   123
_chemical_formula_structural   Sr1.5Sb3Pt3
_chemical_formula_sum   'Sr1.5 Sb3 Pt3'
_cell_volume   749.09954591
_cell_formula_units_Z   1
loop_
 _symmetry_equiv_pos_site_id
 _symmetry_equiv_pos_as_xyz
  1  'x, y, z'
  2  '-x, -y, -z'
  3  '-y, x, z'
  4  'y, -x, -z'
  5  '-x, -y, z'
  6  'x, y, -z'
  7  'y, -x, z'
  8  '-y, x, -z'
  9  'x, -y, -z'
  10  '-x, y, z'
  11  '-y, -x, -z'
  12  'y, x, z'
  13  '-x, y, -z'
  14  'x, -y, z'
  15  'y, x, -z'
  16  '-y, -x, z'
loop_
 _atom_site_type_symbol
 _atom_site_label
 _atom_site_symmetry_multiplicity
 _atom_site_fract_x
 _atom_site_fract_y
 _atom_site_fract_z
 _atom_site_occupancy
  Sr  Sr0  2  0.50000000  0.50000000  0.24066800  0.75
  Sb  Sb1  2  0.50000000  0.50000000  0.38792700  1.0
  Sb  Sb2  1  0.50000000  0.50000000  0.00000000  1.0
  Pt  Pt3  2  0.50000000  0.50000000  0.11607600  1.0
  Pt  Pt4  1  0.50000000  0.50000000  0.50000000  1.0
