# generated using pymatgen
data_Th7Pt3
_symmetry_space_group_name_H-M   P6_3mc
_cell_length_a   6.46304900
_cell_length_b   10.07785800
_cell_length_c   10.07785796
_cell_angle_alpha   120.00000013
_cell_angle_beta   90.00000000
_cell_angle_gamma   90.00000000
_symmetry_Int_Tables_number   186
_chemical_formula_structural   Th7Pt3
_chemical_formula_sum   'Th14 Pt6'
_cell_volume   568.46606912
_cell_formula_units_Z   2
loop_
 _symmetry_equiv_pos_site_id
 _symmetry_equiv_pos_as_xyz
  1  'x, y, z'
  2  'x+1/2, z, -y+z'
  3  'x, -y+z, -y'
  4  'x+1/2, -y, -z'
  5  'x, -z, y-z'
  6  'x+1/2, y-z, y'
  7  'x+1/2, y-z, -z'
  8  'x, y, y-z'
  9  'x+1/2, z, y'
  10  'x, -y+z, z'
  11  'x+1/2, -y, -y+z'
  12  'x, -z, -y'
loop_
 _atom_site_type_symbol
 _atom_site_label
 _atom_site_symmetry_multiplicity
 _atom_site_fract_x
 _atom_site_fract_y
 _atom_site_fract_z
 _atom_site_occupancy
  Th  Th0  6  0.25438900  0.12848900  0.25697800  1.0
  Th  Th1  6  0.46883100  0.54417000  0.45583000  1.0
  Th  Th2  2  0.41833800  0.33333333  0.66666667  1.0
  Pt  Pt3  6  0.18931800  0.37664500  0.18832200  1.0
