# generated using pymatgen
data_Th4.66666667Pt2
_symmetry_space_group_name_H-M   P6_3/mmc
_cell_length_a   5.14502900
_cell_length_b   7.00590824
_cell_length_c   7.00590774
_cell_angle_alpha   119.99999045
_cell_angle_beta   90.00000000
_cell_angle_gamma   90.00000000
_symmetry_Int_Tables_number   194
_chemical_formula_structural   Th4.66666667Pt2
_chemical_formula_sum   'Th4.66666667 Pt2'
_cell_volume   218.69928298
_cell_formula_units_Z   1
loop_
 _symmetry_equiv_pos_site_id
 _symmetry_equiv_pos_as_xyz
  1  'x, y, z'
  2  '-x, -y, -z'
  3  'x+1/2, z, -y+z'
  4  '-x+1/2, -z, y-z'
  5  'x, -y+z, -y'
  6  '-x, y-z, y'
  7  'x+1/2, -y, -z'
  8  '-x+1/2, y, z'
  9  'x, -z, y-z'
  10  '-x, z, -y+z'
  11  'x+1/2, y-z, y'
  12  '-x+1/2, -y+z, -y'
  13  '-x+1/2, -z, -y'
  14  'x+1/2, z, y'
  15  '-x, y-z, -z'
  16  'x, -y+z, z'
  17  '-x+1/2, y, y-z'
  18  'x+1/2, -y, -y+z'
  19  '-x, z, y'
  20  'x, -z, -y'
  21  '-x+1/2, -y+z, z'
  22  'x+1/2, y-z, -z'
  23  '-x, -y, -y+z'
  24  'x, y, y-z'
loop_
 _atom_site_type_symbol
 _atom_site_label
 _atom_site_symmetry_multiplicity
 _atom_site_fract_x
 _atom_site_fract_y
 _atom_site_fract_z
 _atom_site_occupancy
  Th  Th0  6  0.24999900  0.64453400  0.82226600  0.7777777777833333
  Pt  Pt1  2  0.25000100  0.66666667  0.33333333  1.0
