# generated using pymatgen
data_Y8Pt3.42857143
_symmetry_space_group_name_H-M   Pnma
_cell_length_a   4.78838700
_cell_length_b   7.19731800
_cell_length_c   8.81486000
_cell_angle_alpha   90.00000000
_cell_angle_beta   90.00000000
_cell_angle_gamma   90.00000000
_symmetry_Int_Tables_number   62
_chemical_formula_structural   Y8Pt3.42857143
_chemical_formula_sum   'Y8 Pt3.42857143'
_cell_volume   303.79131499
_cell_formula_units_Z   1
loop_
 _symmetry_equiv_pos_site_id
 _symmetry_equiv_pos_as_xyz
  1  'x, y, z'
  2  '-x, -y, -z'
  3  '-x, -y+1/2, z+1/2'
  4  'x, y+1/2, -z+1/2'
  5  '-x+1/2, y+1/2, -z+1/2'
  6  'x+1/2, -y+1/2, z+1/2'
  7  'x+1/2, -y, -z'
  8  '-x+1/2, y, z'
loop_
 _atom_site_type_symbol
 _atom_site_label
 _atom_site_symmetry_multiplicity
 _atom_site_fract_x
 _atom_site_fract_y
 _atom_site_fract_z
 _atom_site_occupancy
  Y  Y0  4  0.25000000  0.35509400  0.58028600  1.0
  Y  Y1  4  0.25000000  0.48826600  0.16846700  1.0
  Pt  Pt2  4  0.25000000  0.25839200  0.90598500  0.8571428571499999
