# generated using pymatgen
data_TiPt8
_symmetry_space_group_name_H-M   I4/mmm
_cell_length_a   3.94033000
_cell_length_b   6.27729166
_cell_length_c   6.27729166
_cell_angle_alpha   84.34688162
_cell_angle_beta   71.70824088
_cell_angle_gamma   71.70824089
_symmetry_Int_Tables_number   139
_chemical_formula_structural   TiPt8
_chemical_formula_sum   'Ti1 Pt8'
_cell_volume   139.97171393
_cell_formula_units_Z   1
loop_
 _symmetry_equiv_pos_site_id
 _symmetry_equiv_pos_as_xyz
  1  'x, y, z'
  2  '-x, -y, -z'
  3  'x+y, z, -y'
  4  '-x-y, -z, y'
  5  'x+y+z, -y, -z'
  6  '-x-y-z, y, z'
  7  'x+z, -z, y'
  8  '-x-z, z, -y'
  9  '-x, -z, -y'
  10  'x, z, y'
  11  '-x-y, y, -z'
  12  'x+y, -y, z'
  13  '-x-y-z, z, y'
  14  'x+y+z, -z, -y'
  15  '-x-z, -y, z'
  16  'x+z, y, -z'
loop_
 _atom_site_type_symbol
 _atom_site_label
 _atom_site_symmetry_multiplicity
 _atom_site_fract_x
 _atom_site_fract_y
 _atom_site_fract_z
 _atom_site_occupancy
  Ti  Ti0  1  0.00000000  0.00000000  0.00000000  1.0
  Pt  Pt1  4  0.00000000  0.32897200  0.67102800  1.0
  Pt  Pt2  4  0.33811600  0.00000000  0.32376800  1.0
