# generated using pymatgen
data_Pu
_symmetry_space_group_name_H-M   P2_1/m
_cell_length_a   4.55493400
_cell_length_b   6.01329136
_cell_length_c   10.95229690
_cell_angle_alpha   101.92945780
_cell_angle_beta   90.00000000
_cell_angle_gamma   90.00000000
_symmetry_Int_Tables_number   11
_chemical_formula_structural   Pu
_chemical_formula_sum   Pu16
_cell_volume   293.50617865
_cell_formula_units_Z   16
loop_
 _symmetry_equiv_pos_site_id
 _symmetry_equiv_pos_as_xyz
  1  'x, y, z'
  2  '-x, -y, -z'
  3  'x+1/2, -y, -z'
  4  '-x+1/2, y, z'
loop_
 _atom_site_type_symbol
 _atom_site_label
 _atom_site_symmetry_multiplicity
 _atom_site_fract_x
 _atom_site_fract_y
 _atom_site_fract_z
 _atom_site_occupancy
  Pu  Pu0  2  0.25000000  0.01843300  0.61829500  1.0
  Pu  Pu1  2  0.25000000  0.10794800  0.32658700  1.0
  Pu  Pu2  2  0.25000000  0.30177600  0.92729200  1.0
  Pu  Pu3  2  0.25000000  0.33451100  0.15708400  1.0
  Pu  Pu4  2  0.25000000  0.44323600  0.63656900  1.0
  Pu  Pu5  2  0.25000000  0.64966800  0.46330400  1.0
  Pu  Pu6  2  0.25000000  0.74897400  0.17007000  1.0
  Pu  Pu7  2  0.25000000  0.86556500  0.89091800  1.0
