# generated using pymatgen
data_Pu
_symmetry_space_group_name_H-M   Fddd
_cell_length_a   3.33022655
_cell_length_b   3.33022654
_cell_length_c   3.96714963
_cell_angle_alpha   104.07985963
_cell_angle_beta   104.07985951
_cell_angle_gamma   114.85965450
_symmetry_Int_Tables_number   70
_chemical_formula_structural   Pu
_chemical_formula_sum   Pu2
_cell_volume   35.61178669
_cell_formula_units_Z   2
loop_
 _symmetry_equiv_pos_site_id
 _symmetry_equiv_pos_as_xyz
  1  'x, y, z'
  2  '-x+z, -y+z, z'
  3  'y-z, x-z, -z'
  4  '-y, -x, -z'
  5  '-x+1/4, -y+3/4, -z+1/2'
  6  'x-z+1/4, y-z+3/4, -z+1/2'
  7  '-y+z+1/4, -x+z+3/4, z+1/2'
  8  'y+1/4, x+3/4, z+1/2'
loop_
 _atom_site_type_symbol
 _atom_site_label
 _atom_site_symmetry_multiplicity
 _atom_site_fract_x
 _atom_site_fract_y
 _atom_site_fract_z
 _atom_site_occupancy
  Pu  Pu0  2  0.00000000  0.00000000  0.00000000  1.0
