# generated using pymatgen
data_Pu
_symmetry_space_group_name_H-M   Cmce
_cell_length_a   3.78245500
_cell_length_b   4.24912000
_cell_length_c   5.14152889
_cell_angle_alpha   65.59300484
_cell_angle_beta   90.00000000
_cell_angle_gamma   90.00000000
_symmetry_Int_Tables_number   64
_chemical_formula_structural   Pu
_chemical_formula_sum   Pu4
_cell_volume   75.25035192
_cell_formula_units_Z   4
loop_
 _symmetry_equiv_pos_site_id
 _symmetry_equiv_pos_as_xyz
  1  'x, y, z'
  2  '-x, -y, -z'
  3  'x+1/2, -y+1/2, -z'
  4  '-x+1/2, y+1/2, z'
  5  '-x, y+z, -z'
  6  'x, -y-z, z'
  7  '-x+1/2, -y-z+1/2, z'
  8  'x+1/2, y+z+1/2, -z'
loop_
 _atom_site_type_symbol
 _atom_site_label
 _atom_site_symmetry_multiplicity
 _atom_site_fract_x
 _atom_site_fract_y
 _atom_site_fract_z
 _atom_site_occupancy
  Pu  Pu0  4  0.10515400  0.87929000  0.24142000  1.0
