# generated using pymatgen
data_Pu
_symmetry_space_group_name_H-M   C2/m
_cell_length_a   7.78843398
_cell_length_b   7.78843398
_cell_length_c   7.80632292
_cell_angle_alpha   63.68820127
_cell_angle_beta   63.68820127
_cell_angle_gamma   83.14487271
_symmetry_Int_Tables_number   12
_chemical_formula_structural   Pu
_chemical_formula_sum   Pu17
_cell_volume   378.73588467
_cell_formula_units_Z   17
loop_
 _symmetry_equiv_pos_site_id
 _symmetry_equiv_pos_as_xyz
  1  'x, y, z'
  2  '-x, -y, -z'
  3  '-y, -x, -z'
  4  'y, x, z'
loop_
 _atom_site_type_symbol
 _atom_site_label
 _atom_site_symmetry_multiplicity
 _atom_site_fract_x
 _atom_site_fract_y
 _atom_site_fract_z
 _atom_site_occupancy
  Pu  Pu0  4  0.00906100  0.30971600  0.58331000  1.0
  Pu  Pu1  4  0.14515000  0.57542900  0.02547400  1.0
  Pu  Pu2  2  0.13198500  0.13198500  0.24166400  1.0
  Pu  Pu3  2  0.26863600  0.73136400  0.50000000  1.0
  Pu  Pu4  2  0.31748400  0.31748400  0.75713800  1.0
  Pu  Pu5  2  0.40635500  0.40635500  0.27083600  1.0
  Pu  Pu6  1  0.00000000  0.00000000  0.00000000  1.0
