# generated using pymatgen
data_Rb1.98W6O18
_symmetry_space_group_name_H-M   P6_3mc
_cell_length_a   7.52153400
_cell_length_b   7.52153355
_cell_length_c   7.74201600
_cell_angle_alpha   90.00000000
_cell_angle_beta   90.00000000
_cell_angle_gamma   120.00000198
_symmetry_Int_Tables_number   186
_chemical_formula_structural   Rb1.98W6O18
_chemical_formula_sum   'Rb1.98 W6 O18'
_cell_volume   379.31280809
_cell_formula_units_Z   1
loop_
 _symmetry_equiv_pos_site_id
 _symmetry_equiv_pos_as_xyz
  1  'x, y, z'
  2  'x-y, x, z+1/2'
  3  '-y, x-y, z'
  4  '-x, -y, z+1/2'
  5  '-x+y, -x, z'
  6  'y, -x+y, z+1/2'
  7  'y, x, z+1/2'
  8  'x, x-y, z'
  9  'x-y, -y, z+1/2'
  10  '-y, -x, z'
  11  '-x, -x+y, z+1/2'
  12  '-x+y, y, z'
loop_
 _atom_site_type_symbol
 _atom_site_label
 _atom_site_symmetry_multiplicity
 _atom_site_fract_x
 _atom_site_fract_y
 _atom_site_fract_z
 _atom_site_occupancy
  Rb  Rb0  2  0.00000000  0.00000000  0.48888200  0.99
  W  W1  6  0.00011400  0.50005700  0.75104500  1.0
  O  O2  6  0.02601300  0.51300600  0.50100000  1.0
  O  O3  6  0.21001900  0.42003800  0.76682200  1.0
  O  O4  6  0.21044700  0.42089400  0.23550500  1.0
