# generated using pymatgen
data_Rb0.48W3O9
_symmetry_space_group_name_H-M   P6/mmm
_cell_length_a   3.88298900
_cell_length_b   7.53009400
_cell_length_c   7.53009340
_cell_angle_alpha   120.00000265
_cell_angle_beta   90.00000000
_cell_angle_gamma   90.00000000
_symmetry_Int_Tables_number   191
_chemical_formula_structural   Rb0.48W3O9
_chemical_formula_sum   'Rb0.48 W3 O9'
_cell_volume   190.67666222
_cell_formula_units_Z   1
loop_
 _symmetry_equiv_pos_site_id
 _symmetry_equiv_pos_as_xyz
  1  'x, y, z'
  2  '-x, -y, -z'
  3  'x, y-z, y'
  4  '-x, -y+z, -y'
  5  'x, -z, y-z'
  6  '-x, z, -y+z'
  7  'x, -y, -z'
  8  '-x, y, z'
  9  'x, -y+z, -y'
  10  '-x, y-z, y'
  11  'x, z, -y+z'
  12  '-x, -z, y-z'
  13  '-x, -y+z, z'
  14  'x, y-z, -z'
  15  '-x, z, y'
  16  'x, -z, -y'
  17  '-x, y, y-z'
  18  'x, -y, -y+z'
  19  '-x, y-z, -z'
  20  'x, -y+z, z'
  21  '-x, -z, -y'
  22  'x, z, y'
  23  '-x, -y, -y+z'
  24  'x, y, y-z'
loop_
 _atom_site_type_symbol
 _atom_site_label
 _atom_site_symmetry_multiplicity
 _atom_site_fract_x
 _atom_site_fract_y
 _atom_site_fract_z
 _atom_site_occupancy
  Rb  Rb0  1  0.00000000  0.00000000  0.00000000  0.48
  W  W1  3  0.50000000  0.00000000  0.50000000  1.0
  O  O2  6  0.50000000  0.21026500  0.42053000  1.0
  O  O3  3  0.00000000  0.00000000  0.50000000  1.0
