# generated using pymatgen
data_Rb0.84W6O18
_symmetry_space_group_name_H-M   Immm
_cell_length_a   7.51787300
_cell_length_b   7.73016000
_cell_length_c   8.45353255
_cell_angle_alpha   117.20752767
_cell_angle_beta   116.40150233
_cell_angle_gamma   90.00000000
_symmetry_Int_Tables_number   71
_chemical_formula_structural   Rb0.84W6O18
_chemical_formula_sum   'Rb0.84 W6 O18'
_cell_volume   378.38548199
_cell_formula_units_Z   1
loop_
 _symmetry_equiv_pos_site_id
 _symmetry_equiv_pos_as_xyz
  1  'x, y, z'
  2  '-x, -y, -z'
  3  '-x+z, -y+z, z'
  4  'x-z, y-z, -z'
  5  'x-z, -y, -z'
  6  '-x+z, y, z'
  7  '-x, y-z, -z'
  8  'x, -y+z, z'
loop_
 _atom_site_type_symbol
 _atom_site_label
 _atom_site_symmetry_multiplicity
 _atom_site_fract_x
 _atom_site_fract_y
 _atom_site_fract_z
 _atom_site_occupancy
  Rb  Rb0  1  0.00000000  0.00000000  0.00000000  0.84
  W  W1  4  0.00000000  0.00000000  0.50000000  1.0
  W  W2  2  0.50000000  0.25031400  0.00000000  1.0
  O  O3  8  0.21201150  0.14192200  0.78809800  1.0
  O  O4  4  0.00006500  0.75015500  0.50031000  1.0
  O  O5  4  0.21202800  0.45972400  0.42405600  1.0
  O  O6  1  0.50000000  0.00000000  0.00000000  1.0
  O  O7  1  0.50000000  0.50000000  0.00000000  1.0
