# generated using pymatgen
data_Rb0.96W6O18
_symmetry_space_group_name_H-M   Immm
_cell_length_a   7.51771800
_cell_length_b   8.45729948
_cell_length_c   7.73045400
_cell_angle_alpha   117.19552843
_cell_angle_beta   90.00000000
_cell_angle_gamma   116.38824791
_symmetry_Int_Tables_number   71
_chemical_formula_structural   Rb0.96W6O18
_chemical_formula_sum   'Rb0.96 W6 O18'
_cell_volume   378.67378593
_cell_formula_units_Z   1
loop_
 _symmetry_equiv_pos_site_id
 _symmetry_equiv_pos_as_xyz
  1  'x, y, z'
  2  '-x, -y, -z'
  3  '-x+y, y, y-z'
  4  'x-y, -y, -y+z'
  5  'x-y, -y, -z'
  6  '-x+y, y, z'
  7  '-x, -y, -y+z'
  8  'x, y, y-z'
loop_
 _atom_site_type_symbol
 _atom_site_label
 _atom_site_symmetry_multiplicity
 _atom_site_fract_x
 _atom_site_fract_y
 _atom_site_fract_z
 _atom_site_occupancy
  Rb  Rb0  1  0.00000000  0.00000000  0.00000000  0.96
  W  W1  4  0.00000000  0.50000000  0.00000000  1.0
  W  W2  2  0.50000000  0.00000000  0.25075900  1.0
  O  O3  8  0.21213300  0.78808800  0.14187100  1.0
  O  O4  4  0.00011900  0.49994400  0.74997200  1.0
  O  O5  4  0.21213100  0.42426200  0.45966700  1.0
  O  O6  1  0.50000000  0.00000000  0.00000000  1.0
  O  O7  1  0.50000000  0.00000000  0.50000000  1.0
