# generated using pymatgen
data_Rb
_symmetry_space_group_name_H-M   Fddd
_cell_length_a   4.87027000
_cell_length_b   8.04883490
_cell_length_c   13.27598982
_cell_angle_alpha   86.81879284
_cell_angle_beta   79.43073864
_cell_angle_gamma   72.38947214
_symmetry_Int_Tables_number   70
_chemical_formula_structural   Rb
_chemical_formula_sum   Rb4
_cell_volume   487.61372454
_cell_formula_units_Z   4
loop_
 _symmetry_equiv_pos_site_id
 _symmetry_equiv_pos_as_xyz
  1  'x, y, z'
  2  '-x-z, -y, z'
  3  'x+y+z, -y, -z'
  4  '-x-y, y, -z'
  5  '-x+3/4, -y+1/2, -z+1/2'
  6  'x+z+3/4, y+1/2, -z+1/2'
  7  '-x-y-z+3/4, y+1/2, z+1/2'
  8  'x+y+3/4, -y+1/2, z+1/2'
loop_
 _atom_site_type_symbol
 _atom_site_label
 _atom_site_symmetry_multiplicity
 _atom_site_fract_x
 _atom_site_fract_y
 _atom_site_fract_z
 _atom_site_occupancy
  Rb  Rb0  4  0.08300300  0.50000000  0.83399400  1.0
