# generated using pymatgen
data_Rb
_symmetry_space_group_name_H-M   I4/mmm
_cell_length_a   12.38540200
_cell_length_b   19.40089790
_cell_length_c   19.40089790
_cell_angle_alpha   84.15218717
_cell_angle_beta   71.38565327
_cell_angle_gamma   71.38565325
_symmetry_Int_Tables_number   139
_chemical_formula_structural   Rb
_chemical_formula_sum   Rb8
_cell_volume   4186.82685532
_cell_formula_units_Z   8
loop_
 _symmetry_equiv_pos_site_id
 _symmetry_equiv_pos_as_xyz
  1  'x, y, z'
  2  '-x, -y, -z'
  3  'x+y, z, -y'
  4  '-x-y, -z, y'
  5  'x+y+z, -y, -z'
  6  '-x-y-z, y, z'
  7  'x+z, -z, y'
  8  '-x-z, z, -y'
  9  '-x-y-z, z, y'
  10  'x+y+z, -z, -y'
  11  '-x-z, -y, z'
  12  'x+z, y, -z'
  13  '-x, -z, -y'
  14  'x, z, y'
  15  '-x-y, y, -z'
  16  'x+y, -y, z'
loop_
 _atom_site_type_symbol
 _atom_site_label
 _atom_site_symmetry_multiplicity
 _atom_site_fract_x
 _atom_site_fract_y
 _atom_site_fract_z
 _atom_site_occupancy
  Rb  Rb0  8  0.08618700  0.70363000  0.12399600  1.0
