# generated using pymatgen
data_Rb
_symmetry_space_group_name_H-M   C2/c
_cell_length_a   7.83947800
_cell_length_b   8.00665492
_cell_length_c   12.60339945
_cell_angle_alpha   105.34867831
_cell_angle_beta   108.11989660
_cell_angle_gamma   90.00000000
_symmetry_Int_Tables_number   15
_chemical_formula_structural   Rb
_chemical_formula_sum   Rb8
_cell_volume   722.11097282
_cell_formula_units_Z   8
loop_
 _symmetry_equiv_pos_site_id
 _symmetry_equiv_pos_as_xyz
  1  'x, y, z'
  2  '-x, -y, -z'
  3  'x-z, -y+1/2, -z'
  4  '-x+z, y+1/2, z'
loop_
 _atom_site_type_symbol
 _atom_site_label
 _atom_site_symmetry_multiplicity
 _atom_site_fract_x
 _atom_site_fract_y
 _atom_site_fract_z
 _atom_site_occupancy
  Rb  Rb0  4  0.08557100  0.31379500  0.62237800  1.0
  Rb  Rb1  4  0.17236100  0.94081900  0.87179200  1.0
