# generated using pymatgen
data_Rb
_symmetry_space_group_name_H-M   C222_1
_cell_length_a   10.12031899
_cell_length_b   10.12031899
_cell_length_c   25.50585500
_cell_angle_alpha   90.00000000
_cell_angle_beta   90.00000000
_cell_angle_gamma   109.83822858
_symmetry_Int_Tables_number   20
_chemical_formula_structural   Rb
_chemical_formula_sum   Rb26
_cell_volume   2457.30152109
_cell_formula_units_Z   26
loop_
 _symmetry_equiv_pos_site_id
 _symmetry_equiv_pos_as_xyz
  1  'x, y, z'
  2  '-x, -y, z+1/2'
  3  'y, x, -z'
  4  '-y, -x, -z+1/2'
loop_
 _atom_site_type_symbol
 _atom_site_label
 _atom_site_symmetry_multiplicity
 _atom_site_fract_x
 _atom_site_fract_y
 _atom_site_fract_z
 _atom_site_occupancy
  Rb  Rb0  4  0.02752500  0.29333000  0.04386900  1.0
  Rb  Rb1  4  0.03954500  0.82460600  0.10660400  1.0
  Rb  Rb2  4  0.09337700  0.41759500  0.41121500  1.0
  Rb  Rb3  4  0.14210600  0.42908000  0.76723500  1.0
  Rb  Rb4  4  0.25984300  0.51554100  0.18307400  1.0
  Rb  Rb5  4  0.39903500  0.58737300  0.57254100  1.0
  Rb  Rb6  2  0.08977000  0.91023000  0.75000000  1.0
