# generated using pymatgen
data_Re1.2W1.8
_symmetry_space_group_name_H-M   Fmmm
_cell_length_a   2.74334619
_cell_length_b   2.74334619
_cell_length_c   6.91553091
_cell_angle_alpha   97.53388704
_cell_angle_beta   97.53388715
_cell_angle_gamma   109.81431865
_symmetry_Int_Tables_number   69
_chemical_formula_structural   Re1.2W1.8
_chemical_formula_sum   'Re1.2 W1.8'
_cell_volume   47.67424188
_cell_formula_units_Z   1
loop_
 _symmetry_equiv_pos_site_id
 _symmetry_equiv_pos_as_xyz
  1  'x, y, z'
  2  '-x, -y, -z'
  3  '-x+z, -y+z, z'
  4  'x-z, y-z, -z'
  5  'y-z, x-z, -z'
  6  '-y+z, -x+z, z'
  7  '-y, -x, -z'
  8  'y, x, z'
loop_
 _atom_site_type_symbol
 _atom_site_label
 _atom_site_symmetry_multiplicity
 _atom_site_fract_x
 _atom_site_fract_y
 _atom_site_fract_z
 _atom_site_occupancy
  Re  Re0  1  0.00000000  0.00000000  0.00000000  1.0
  W  W1  2  0.33403500  0.33403500  0.66807000  0.9
  Re  Re2  2  0.33403500  0.33403500  0.66807000  0.1
