# generated using pymatgen
data_ReO2
_symmetry_space_group_name_H-M   P2_1/c
_cell_length_a   4.88113300
_cell_length_b   5.60349000
_cell_length_c   5.63571492
_cell_angle_alpha   119.49902108
_cell_angle_beta   90.00000000
_cell_angle_gamma   90.00000000
_symmetry_Int_Tables_number   14
_chemical_formula_structural   ReO2
_chemical_formula_sum   'Re4 O8'
_cell_volume   134.16191012
_cell_formula_units_Z   4
loop_
 _symmetry_equiv_pos_site_id
 _symmetry_equiv_pos_as_xyz
  1  'x, y, z'
  2  '-x, -y, -z'
  3  'x+1/2, -y+1/2, -z+1/2'
  4  '-x+1/2, y+1/2, z+1/2'
loop_
 _atom_site_type_symbol
 _atom_site_label
 _atom_site_symmetry_multiplicity
 _atom_site_fract_x
 _atom_site_fract_y
 _atom_site_fract_z
 _atom_site_occupancy
  Re  Re0  4  0.00459700  0.01330600  0.78066800  1.0
  O  O1  4  0.19881800  0.80644200  0.41155400  1.0
  O  O2  4  0.22325900  0.77318700  0.88052600  1.0
