# generated using pymatgen
data_ReO3
_symmetry_space_group_name_H-M   P6_322
_cell_length_a   4.50536300
_cell_length_b   4.91557400
_cell_length_c   4.91557490
_cell_angle_alpha   60.00000607
_cell_angle_beta   90.00000000
_cell_angle_gamma   90.00000000
_symmetry_Int_Tables_number   182
_chemical_formula_structural   ReO3
_chemical_formula_sum   'Re2 O6'
_cell_volume   94.27770518
_cell_formula_units_Z   2
loop_
 _symmetry_equiv_pos_site_id
 _symmetry_equiv_pos_as_xyz
  1  'x, y, z'
  2  'x+1/2, y+z, -y'
  3  'x, z, -y-z'
  4  'x+1/2, -y, -z'
  5  'x, -y-z, y'
  6  'x+1/2, -z, y+z'
  7  '-x+1/2, z, y'
  8  '-x, -y, y+z'
  9  '-x+1/2, -y-z, z'
  10  '-x, -z, -y'
  11  '-x+1/2, y, -y-z'
  12  '-x, y+z, -z'
loop_
 _atom_site_type_symbol
 _atom_site_label
 _atom_site_symmetry_multiplicity
 _atom_site_fract_x
 _atom_site_fract_y
 _atom_site_fract_z
 _atom_site_occupancy
  Re  Re0  2  0.25000000  0.66666667  0.66666667  1.0
  O  O1  6  0.00000000  0.00000000  0.62507500  1.0
