# generated using pymatgen
data_ReO2
_symmetry_space_group_name_H-M   Pbcn
_cell_length_a   4.62975900
_cell_length_b   4.88610500
_cell_length_c   5.70027500
_cell_angle_alpha   90.00000000
_cell_angle_beta   90.00000000
_cell_angle_gamma   90.00000000
_symmetry_Int_Tables_number   60
_chemical_formula_structural   ReO2
_chemical_formula_sum   'Re4 O8'
_cell_volume   128.94870592
_cell_formula_units_Z   4
loop_
 _symmetry_equiv_pos_site_id
 _symmetry_equiv_pos_as_xyz
  1  'x, y, z'
  2  '-x, -y, -z'
  3  'x+1/2, -y+1/2, -z+1/2'
  4  '-x+1/2, y+1/2, z+1/2'
  5  '-x, y+1/2, -z+1/2'
  6  'x, -y+1/2, z+1/2'
  7  '-x+1/2, -y, z'
  8  'x+1/2, y, -z'
loop_
 _atom_site_type_symbol
 _atom_site_label
 _atom_site_symmetry_multiplicity
 _atom_site_fract_x
 _atom_site_fract_y
 _atom_site_fract_z
 _atom_site_occupancy
  Re  Re0  4  0.25000000  0.00000000  0.10752600  1.0
  O  O1  8  0.09136200  0.24253900  0.35961000  1.0
