# generated using pymatgen
data_ReSe2
_symmetry_space_group_name_H-M   P-1
_cell_length_a   6.66991000
_cell_length_b   6.79280701
_cell_length_c   7.19998214
_cell_angle_alpha   91.82630115
_cell_angle_beta   104.14796526
_cell_angle_gamma   118.81264141
_symmetry_Int_Tables_number   2
_chemical_formula_structural   ReSe2
_chemical_formula_sum   'Re4 Se8'
_cell_volume   272.82339914
_cell_formula_units_Z   4
loop_
 _symmetry_equiv_pos_site_id
 _symmetry_equiv_pos_as_xyz
  1  'x, y, z'
  2  '-x, -y, -z'
loop_
 _atom_site_type_symbol
 _atom_site_label
 _atom_site_symmetry_multiplicity
 _atom_site_fract_x
 _atom_site_fract_y
 _atom_site_fract_z
 _atom_site_occupancy
  Re  Re0  2  0.06423200  0.31616600  0.49084600  1.0
  Re  Re1  2  0.48674500  0.29089300  0.49678500  1.0
  Se  Se2  2  0.22038900  0.10654100  0.70845200  1.0
  Se  Se3  2  0.24921200  0.86556100  0.31752600  1.0
  Se  Se4  2  0.25534900  0.38640200  0.22383200  1.0
  Se  Se5  2  0.27410800  0.65725700  0.74458000  1.0
