# generated using pymatgen
data_Ti5Re24
_symmetry_space_group_name_H-M   I-43m
_cell_length_a   8.35951632
_cell_length_b   8.35951632
_cell_length_c   8.35951632
_cell_angle_alpha   109.47122063
_cell_angle_beta   109.47122064
_cell_angle_gamma   109.47122064
_symmetry_Int_Tables_number   217
_chemical_formula_structural   Ti5Re24
_chemical_formula_sum   'Ti5 Re24'
_cell_volume   449.69862444
_cell_formula_units_Z   1
loop_
 _symmetry_equiv_pos_site_id
 _symmetry_equiv_pos_as_xyz
  1  'x, y, z'
  2  '-x+z, -x, -x+y'
  3  'y-z, x-z, -z'
  4  '-y, -y+z, x-y'
  5  '-y+z, -y, x-y'
  6  'y, x, z'
  7  '-x, -x+z, -x+y'
  8  'x-z, y-z, -z'
  9  '-y, x-y, -y+z'
  10  'x, z, y'
  11  '-x+z, -x+y, -x'
  12  'y-z, -z, x-z'
  13  'y, z, x'
  14  '-x, -x+y, -x+z'
  15  'x-z, -z, y-z'
  16  '-y+z, x-y, -y'
  17  '-x+y, -x, -x+z'
  18  '-z, x-z, y-z'
  19  'x-y, -y+z, -y'
  20  'z, y, x'
  21  '-z, y-z, x-z'
  22  'x-y, -y, -y+z'
  23  'z, x, y'
  24  '-x+y, -x+z, -x'
loop_
 _atom_site_type_symbol
 _atom_site_label
 _atom_site_symmetry_multiplicity
 _atom_site_fract_x
 _atom_site_fract_y
 _atom_site_fract_z
 _atom_site_occupancy
  Ti  Ti0  4  0.00000000  0.00000000  0.63230300  1.0
  Ti  Ti1  1  0.00000000  0.00000000  0.00000000  1.0
  Re  Re2  12  0.00000000  0.19318900  0.37488400  1.0
  Re  Re3  12  0.00000000  0.39881100  0.68150300  1.0
