# generated using pymatgen
data_Th2Si2.3Rh1.7
_symmetry_space_group_name_H-M   I4_1md
_cell_length_a   4.16011200
_cell_length_b   4.16011200
_cell_length_c   7.80458876
_cell_angle_alpha   105.45711587
_cell_angle_beta   105.45711587
_cell_angle_gamma   89.99999999
_symmetry_Int_Tables_number   109
_chemical_formula_structural   Th2Si2.3Rh1.7
_chemical_formula_sum   'Th2 Si2.3 Rh1.7'
_cell_volume   125.10879761
_cell_formula_units_Z   1
loop_
 _symmetry_equiv_pos_site_id
 _symmetry_equiv_pos_as_xyz
  1  'x, y, z'
  2  '-y+z+3/4, x+1/4, z+1/2'
  3  '-x+z, -y+z, z'
  4  'y+3/4, -x+z+1/4, z+1/2'
  5  '-x+z, y, z'
  6  'y+3/4, x+1/4, z+1/2'
  7  'x, -y+z, z'
  8  '-y+z+3/4, -x+z+1/4, z+1/2'
loop_
 _atom_site_type_symbol
 _atom_site_label
 _atom_site_symmetry_multiplicity
 _atom_site_fract_x
 _atom_site_fract_y
 _atom_site_fract_z
 _atom_site_occupancy
  Th  Th0  2  0.32919400  0.82919400  0.65838800  1.0
  Si  Si1  2  0.00009300  0.00009300  0.00018600  1.0
  Rh  Rh2  2  0.16771300  0.16771300  0.33542600  0.85
  Si  Si3  2  0.16771300  0.16771300  0.33542600  0.15
