# generated using pymatgen
data_Rh2S1.76470588
_symmetry_space_group_name_H-M   P6_3mc
_cell_length_a   3.64000200
_cell_length_b   3.64000269
_cell_length_c   6.43404300
_cell_angle_alpha   90.00000000
_cell_angle_beta   90.00000000
_cell_angle_gamma   119.99999372
_symmetry_Int_Tables_number   186
_chemical_formula_structural   Rh2S1.76470588
_chemical_formula_sum   'Rh2 S1.76470588'
_cell_volume   73.82746308
_cell_formula_units_Z   1
loop_
 _symmetry_equiv_pos_site_id
 _symmetry_equiv_pos_as_xyz
  1  'x, y, z'
  2  'x-y+2/3, x+1/3, z+1/2'
  3  '-y, x-y, z'
  4  '-x+2/3, -y+1/3, z+1/2'
  5  '-x+y, -x, z'
  6  'y+2/3, -x+y+1/3, z+1/2'
  7  'y+2/3, x+1/3, z+1/2'
  8  'x, x-y, z'
  9  'x-y+2/3, -y+1/3, z+1/2'
  10  '-y, -x, z'
  11  '-x+2/3, -x+y+1/3, z+1/2'
  12  '-x+y, y, z'
loop_
 _atom_site_type_symbol
 _atom_site_label
 _atom_site_symmetry_multiplicity
 _atom_site_fract_x
 _atom_site_fract_y
 _atom_site_fract_z
 _atom_site_occupancy
  Rh  Rh0  2  0.00000000  0.00000000  0.99416800  1.0
  S  S1  2  0.00000000  0.00000000  0.63083200  0.8823529412
