# generated using pymatgen
data_RhSe2
_symmetry_space_group_name_H-M   Pbcn
_cell_length_a   6.40112000
_cell_length_b   6.52896100
_cell_length_c   9.02851500
_cell_angle_alpha   90.00000000
_cell_angle_beta   90.00000000
_cell_angle_gamma   90.00000000
_symmetry_Int_Tables_number   60
_chemical_formula_structural   RhSe2
_chemical_formula_sum   'Rh6 Se12'
_cell_volume   377.32568331
_cell_formula_units_Z   6
loop_
 _symmetry_equiv_pos_site_id
 _symmetry_equiv_pos_as_xyz
  1  'x, y, z'
  2  '-x, -y, -z'
  3  '-x+1/2, y+1/2, -z+1/2'
  4  'x+1/2, -y+1/2, z+1/2'
  5  '-x+1/2, -y, z+1/2'
  6  'x+1/2, y, -z+1/2'
  7  'x, -y+1/2, -z'
  8  '-x, y+1/2, z'
loop_
 _atom_site_type_symbol
 _atom_site_label
 _atom_site_symmetry_multiplicity
 _atom_site_fract_x
 _atom_site_fract_y
 _atom_site_fract_z
 _atom_site_occupancy
  Rh  Rh0  8  0.24823300  0.53248200  0.39235300  0.75
  Se  Se1  8  0.10970700  0.60538100  0.65149600  1.0
  Se  Se2  4  0.04469000  0.75000000  0.00000000  1.0
