# generated using pymatgen
data_TiSiRh
_symmetry_space_group_name_H-M   Pnma
_cell_length_a   3.83265300
_cell_length_b   6.27602600
_cell_length_c   7.27958500
_cell_angle_alpha   90.00000000
_cell_angle_beta   90.00000000
_cell_angle_gamma   90.00000000
_symmetry_Int_Tables_number   62
_chemical_formula_structural   TiSiRh
_chemical_formula_sum   'Ti4 Si4 Rh4'
_cell_volume   175.10189917
_cell_formula_units_Z   4
loop_
 _symmetry_equiv_pos_site_id
 _symmetry_equiv_pos_as_xyz
  1  'x, y, z'
  2  '-x, -y, -z'
  3  '-x, -y+1/2, z+1/2'
  4  'x, y+1/2, -z+1/2'
  5  '-x+1/2, y+1/2, -z+1/2'
  6  'x+1/2, -y+1/2, z+1/2'
  7  'x+1/2, -y, -z'
  8  '-x+1/2, y, z'
loop_
 _atom_site_type_symbol
 _atom_site_label
 _atom_site_symmetry_multiplicity
 _atom_site_fract_x
 _atom_site_fract_y
 _atom_site_fract_z
 _atom_site_occupancy
  Ti  Ti0  4  0.25000000  0.47549700  0.68248400  1.0
  Si  Si1  4  0.25000000  0.23156700  0.37829100  1.0
  Rh  Rh2  4  0.25000000  0.34691400  0.06366200  1.0
