# generated using pymatgen
data_RhSe2
_symmetry_space_group_name_H-M   Pnma
_cell_length_a   3.78918300
_cell_length_b   6.02896000
_cell_length_c   21.22295100
_cell_angle_alpha   90.00000000
_cell_angle_beta   90.00000000
_cell_angle_gamma   90.00000000
_symmetry_Int_Tables_number   62
_chemical_formula_structural   RhSe2
_chemical_formula_sum   'Rh8 Se16'
_cell_volume   484.83476584
_cell_formula_units_Z   8
loop_
 _symmetry_equiv_pos_site_id
 _symmetry_equiv_pos_as_xyz
  1  'x, y, z'
  2  '-x, -y, -z'
  3  '-x, y+1/2, -z+1/2'
  4  'x, -y+1/2, z+1/2'
  5  '-x+1/2, -y+1/2, z+1/2'
  6  'x+1/2, y+1/2, -z+1/2'
  7  'x+1/2, -y, -z'
  8  '-x+1/2, y, z'
loop_
 _atom_site_type_symbol
 _atom_site_label
 _atom_site_symmetry_multiplicity
 _atom_site_fract_x
 _atom_site_fract_y
 _atom_site_fract_z
 _atom_site_occupancy
  Rh  Rh0  4  0.25000000  0.05618300  0.80528500  1.0
  Rh  Rh1  4  0.25000000  0.07234200  0.57589200  1.0
  Se  Se2  4  0.25000000  0.04749900  0.12138500  1.0
  Se  Se3  4  0.25000000  0.07168200  0.36034500  1.0
  Se  Se4  4  0.25000000  0.67857800  0.76298800  1.0
  Se  Se5  4  0.25000000  0.72362300  0.99168700  1.0
