# generated using pymatgen
data_Sn2Rh
_symmetry_space_group_name_H-M   I4mm
_cell_length_a   6.74424600
_cell_length_b   6.74424600
_cell_length_c   7.18405924
_cell_angle_alpha   117.99468421
_cell_angle_beta   117.99468424
_cell_angle_gamma   90.00000000
_symmetry_Int_Tables_number   107
_chemical_formula_structural   Sn2Rh
_chemical_formula_sum   'Sn6 Rh3'
_cell_volume   244.38652793
_cell_formula_units_Z   3
loop_
 _symmetry_equiv_pos_site_id
 _symmetry_equiv_pos_as_xyz
  1  'x, y, z'
  2  '-y+z, x, z'
  3  '-x+z, -y+z, z'
  4  'y, -x+z, z'
  5  '-x+z, y, z'
  6  'y, x, z'
  7  'x, -y+z, z'
  8  '-y+z, -x+z, z'
loop_
 _atom_site_type_symbol
 _atom_site_label
 _atom_site_symmetry_multiplicity
 _atom_site_fract_x
 _atom_site_fract_y
 _atom_site_fract_z
 _atom_site_occupancy
  Sn  Sn0  4  0.05915700  0.35355800  0.11831400  1.0
  Sn  Sn1  2  0.30655900  0.80655900  0.61311800  1.0
  Rh  Rh2  1  0.25983800  0.25983700  0.51967500  1.0
  Rh  Rh3  1  0.49230200  0.49230300  0.98460500  1.0
  Rh  Rh4  1  0.71411300  0.71411400  0.42822700  1.0
