# generated using pymatgen
data_SiRh
_symmetry_space_group_name_H-M   P2_1/c
_cell_length_a   4.60255100
_cell_length_b   4.62172300
_cell_length_c   5.56172022
_cell_angle_alpha   113.65387961
_cell_angle_beta   90.00000000
_cell_angle_gamma   90.00000000
_symmetry_Int_Tables_number   14
_chemical_formula_structural   SiRh
_chemical_formula_sum   'Si4 Rh4'
_cell_volume   108.36784151
_cell_formula_units_Z   4
loop_
 _symmetry_equiv_pos_site_id
 _symmetry_equiv_pos_as_xyz
  1  'x, y, z'
  2  '-x, -y, -z'
  3  'x+1/2, -y+1/2, -z+1/2'
  4  '-x+1/2, y+1/2, z+1/2'
loop_
 _atom_site_type_symbol
 _atom_site_label
 _atom_site_symmetry_multiplicity
 _atom_site_fract_x
 _atom_site_fract_y
 _atom_site_fract_z
 _atom_site_occupancy
  Si  Si0  4  0.14707600  0.22940900  0.44200700  1.0
  Rh  Rh1  4  0.14366400  0.18101300  0.88124500  1.0
