# generated using pymatgen
data_Te2Rh
_symmetry_space_group_name_H-M   P-3m1
_cell_length_a   3.96244600
_cell_length_b   3.96244609
_cell_length_c   5.51581100
_cell_angle_alpha   90.00000000
_cell_angle_beta   90.00000000
_cell_angle_gamma   119.99999925
_symmetry_Int_Tables_number   164
_chemical_formula_structural   Te2Rh
_chemical_formula_sum   'Te2 Rh1'
_cell_volume   75.00094490
_cell_formula_units_Z   1
loop_
 _symmetry_equiv_pos_site_id
 _symmetry_equiv_pos_as_xyz
  1  'x, y, z'
  2  '-x, -y, -z'
  3  '-y, x-y, z'
  4  'y, -x+y, -z'
  5  '-x+y, -x, z'
  6  'x-y, x, -z'
  7  'y, x, -z'
  8  '-y, -x, z'
  9  'x-y, -y, -z'
  10  '-x+y, y, z'
  11  '-x, -x+y, -z'
  12  'x, x-y, z'
loop_
 _atom_site_type_symbol
 _atom_site_label
 _atom_site_symmetry_multiplicity
 _atom_site_fract_x
 _atom_site_fract_y
 _atom_site_fract_z
 _atom_site_occupancy
  Te  Te0  2  0.33333333  0.66666667  0.24986900  1.0
  Rh  Rh1  1  0.00000000  0.00000000  0.00000000  1.0
