# generated using pymatgen
data_Y14Rh4.66666667
_symmetry_space_group_name_H-M   P6_3mc
_cell_length_a   6.22047300
_cell_length_b   9.82810000
_cell_length_c   9.82810063
_cell_angle_alpha   119.99999787
_cell_angle_beta   90.00000000
_cell_angle_gamma   90.00000000
_symmetry_Int_Tables_number   186
_chemical_formula_structural   Y14Rh4.66666667
_chemical_formula_sum   'Y14 Rh4.66666667'
_cell_volume   520.34718771
_cell_formula_units_Z   1
loop_
 _symmetry_equiv_pos_site_id
 _symmetry_equiv_pos_as_xyz
  1  'x, y, z'
  2  'x+1/2, y-z, y'
  3  'x, -z, y-z'
  4  'x+1/2, -y, -z'
  5  'x, -y+z, -y'
  6  'x+1/2, z, -y+z'
  7  'x+1/2, z, y'
  8  'x, y, y-z'
  9  'x+1/2, y-z, -z'
  10  'x, -z, -y'
  11  'x+1/2, -y, -y+z'
  12  'x, -y+z, z'
loop_
 _atom_site_type_symbol
 _atom_site_label
 _atom_site_symmetry_multiplicity
 _atom_site_fract_x
 _atom_site_fract_y
 _atom_site_fract_z
 _atom_site_occupancy
  Y  Y0  6  0.05485500  0.54082900  0.08165900  1.0
  Y  Y1  6  0.24596200  0.12459500  0.24919000  1.0
  Y  Y2  2  0.04444500  0.33333333  0.66666667  1.0
  Rh  Rh3  6  0.32009300  0.37963300  0.18981700  0.7777777777833333
