# generated using pymatgen
data_ZrRh
_symmetry_space_group_name_H-M   Cmcm
_cell_length_a   3.38626400
_cell_length_b   4.40985600
_cell_length_c   10.04368493
_cell_angle_alpha   90.00000000
_cell_angle_beta   99.70507997
_cell_angle_gamma   90.00000000
_symmetry_Int_Tables_number   63
_chemical_formula_structural   ZrRh
_chemical_formula_sum   'Zr4 Rh4'
_cell_volume   147.83525121
_cell_formula_units_Z   4
loop_
 _symmetry_equiv_pos_site_id
 _symmetry_equiv_pos_as_xyz
  1  'x, y, z'
  2  '-x, -y, -z'
  3  '-x, y+1/2, -z'
  4  'x, -y+1/2, z'
  5  'x-z, -y, -z'
  6  '-x+z, y, z'
  7  '-x+z, -y+1/2, z'
  8  'x-z, y+1/2, -z'
loop_
 _atom_site_type_symbol
 _atom_site_label
 _atom_site_symmetry_multiplicity
 _atom_site_fract_x
 _atom_site_fract_y
 _atom_site_fract_z
 _atom_site_occupancy
  Zr  Zr0  2  0.30492100  0.25000000  0.60984200  1.0
  Zr  Zr1  2  0.43846900  0.75000000  0.87693800  1.0
  Rh  Rh2  2  0.05683800  0.75000000  0.11367600  1.0
  Rh  Rh3  2  0.16853500  0.25000000  0.33707000  1.0
