# generated using pymatgen
data_Rh2O3
_symmetry_space_group_name_H-M   Pbcn
_cell_length_a   5.26003000
_cell_length_b   5.45300100
_cell_length_c   7.37585000
_cell_angle_alpha   90.00000000
_cell_angle_beta   90.00000000
_cell_angle_gamma   90.00000000
_symmetry_Int_Tables_number   60
_chemical_formula_structural   Rh2O3
_chemical_formula_sum   'Rh8 O12'
_cell_volume   211.56112828
_cell_formula_units_Z   4
loop_
 _symmetry_equiv_pos_site_id
 _symmetry_equiv_pos_as_xyz
  1  'x, y, z'
  2  '-x, -y, -z'
  3  '-x+1/2, y+1/2, -z+1/2'
  4  'x+1/2, -y+1/2, z+1/2'
  5  '-x+1/2, -y, z+1/2'
  6  'x+1/2, y, -z+1/2'
  7  'x, -y+1/2, -z'
  8  '-x, y+1/2, z'
loop_
 _atom_site_type_symbol
 _atom_site_label
 _atom_site_symmetry_multiplicity
 _atom_site_fract_x
 _atom_site_fract_y
 _atom_site_fract_z
 _atom_site_occupancy
  Rh  Rh0  8  0.24968200  0.03009200  0.39268700  1.0
  O  O1  8  0.10722300  0.11204600  0.65108700  1.0
  O  O2  4  0.05012000  0.25000000  0.00000000  1.0
