# generated using pymatgen
data_Rh2O3
_symmetry_space_group_name_H-M   Pnma
_cell_length_a   2.78371700
_cell_length_b   8.33409900
_cell_length_c   10.11419300
_cell_angle_alpha   90.00000000
_cell_angle_beta   90.00000000
_cell_angle_gamma   90.00000000
_symmetry_Int_Tables_number   62
_chemical_formula_structural   Rh2O3
_chemical_formula_sum   'Rh8 O12'
_cell_volume   234.64698235
_cell_formula_units_Z   4
loop_
 _symmetry_equiv_pos_site_id
 _symmetry_equiv_pos_as_xyz
  1  'x, y, z'
  2  '-x, -y, -z'
  3  '-x, y+1/2, -z+1/2'
  4  'x, -y+1/2, z+1/2'
  5  '-x+1/2, -y+1/2, z+1/2'
  6  'x+1/2, y+1/2, -z+1/2'
  7  'x+1/2, -y, -z'
  8  '-x+1/2, y, z'
loop_
 _atom_site_type_symbol
 _atom_site_label
 _atom_site_symmetry_multiplicity
 _atom_site_fract_x
 _atom_site_fract_y
 _atom_site_fract_z
 _atom_site_occupancy
  Rh  Rh0  4  0.25000000  0.01295400  0.37329800  1.0
  Rh  Rh1  4  0.25000000  0.16690800  0.00988200  1.0
  O  O2  4  0.25000000  0.15428400  0.64208300  1.0
  O  O3  4  0.25000000  0.53826000  0.39429700  1.0
  O  O4  4  0.25000000  0.70608500  0.11282200  1.0
