# generated using pymatgen
data_Rh2O3
_symmetry_space_group_name_H-M   Pbca
_cell_length_a   5.22933800
_cell_length_b   5.51363400
_cell_length_c   14.96002900
_cell_angle_alpha   90.00000000
_cell_angle_beta   90.00000000
_cell_angle_gamma   90.00000000
_symmetry_Int_Tables_number   61
_chemical_formula_structural   Rh2O3
_chemical_formula_sum   'Rh16 O24'
_cell_volume   431.33736683
_cell_formula_units_Z   8
loop_
 _symmetry_equiv_pos_site_id
 _symmetry_equiv_pos_as_xyz
  1  'x, y, z'
  2  '-x, -y, -z'
  3  '-x+1/2, -y, z+1/2'
  4  'x+1/2, y, -z+1/2'
  5  'x+1/2, -y+1/2, -z'
  6  '-x+1/2, y+1/2, z'
  7  '-x, y+1/2, -z+1/2'
  8  'x, -y+1/2, z+1/2'
loop_
 _atom_site_type_symbol
 _atom_site_label
 _atom_site_symmetry_multiplicity
 _atom_site_fract_x
 _atom_site_fract_y
 _atom_site_fract_z
 _atom_site_occupancy
  Rh  Rh0  8  0.00129000  0.68999500  0.07485900  1.0
  Rh  Rh1  8  0.00129700  0.73632600  0.82132300  1.0
  O  O2  8  0.14207000  0.62784100  0.20276700  1.0
  O  O3  8  0.14894700  0.15110800  0.55261200  1.0
  O  O4  8  0.19842200  0.02003000  0.87641400  1.0
