# generated using pymatgen
data_Rh2O3
_symmetry_space_group_name_H-M   Pnma
_cell_length_a   3.06249500
_cell_length_b   7.74436500
_cell_length_c   9.20670200
_cell_angle_alpha   90.00000000
_cell_angle_beta   90.00000000
_cell_angle_gamma   90.00000000
_symmetry_Int_Tables_number   62
_chemical_formula_structural   Rh2O3
_chemical_formula_sum   'Rh8 O12'
_cell_volume   218.35607950
_cell_formula_units_Z   4
loop_
 _symmetry_equiv_pos_site_id
 _symmetry_equiv_pos_as_xyz
  1  'x, y, z'
  2  '-x, -y, -z'
  3  '-x, -y+1/2, z+1/2'
  4  'x, y+1/2, -z+1/2'
  5  '-x+1/2, y+1/2, -z+1/2'
  6  'x+1/2, -y+1/2, z+1/2'
  7  'x+1/2, -y, -z'
  8  '-x+1/2, y, z'
loop_
 _atom_site_type_symbol
 _atom_site_label
 _atom_site_symmetry_multiplicity
 _atom_site_fract_x
 _atom_site_fract_y
 _atom_site_fract_z
 _atom_site_occupancy
  Rh  Rh0  4  0.25000000  0.32536300  0.96649200  1.0
  Rh  Rh1  4  0.25000000  0.48421500  0.33900800  1.0
  O  O2  4  0.25000000  0.03556000  0.38140800  1.0
  O  O3  4  0.25000000  0.16992600  0.79423300  1.0
  O  O4  4  0.25000000  0.35814100  0.54182300  1.0
