# generated using pymatgen
data_Rh2O3
_symmetry_space_group_name_H-M   C2/c
_cell_length_a   5.23514067
_cell_length_b   6.17543659
_cell_length_c   6.17543601
_cell_angle_alpha   91.77905783
_cell_angle_beta   106.24991531
_cell_angle_gamma   106.24991519
_symmetry_Int_Tables_number   15
_chemical_formula_structural   Rh2O3
_chemical_formula_sum   'Rh4 O6'
_cell_volume   182.71470525
_cell_formula_units_Z   2
loop_
 _symmetry_equiv_pos_site_id
 _symmetry_equiv_pos_as_xyz
  1  'x, y, z'
  2  '-x, -y, -z'
  3  '-x+1/2, -z, -y'
  4  'x+1/2, z, y'
loop_
 _atom_site_type_symbol
 _atom_site_label
 _atom_site_symmetry_multiplicity
 _atom_site_fract_x
 _atom_site_fract_y
 _atom_site_fract_z
 _atom_site_occupancy
  Rh  Rh0  4  0.15663600  0.20703000  0.19548800  1.0
  O  O1  4  0.00337100  0.23591000  0.42907000  1.0
  O  O2  2  0.25000000  0.06372200  0.93627800  1.0
