# generated using pymatgen
data_TaRh2
_symmetry_space_group_name_H-M   Pnma
_cell_length_a   4.14981700
_cell_length_b   5.47840900
_cell_length_c   8.17773800
_cell_angle_alpha   90.00000000
_cell_angle_beta   90.00000000
_cell_angle_gamma   90.00000000
_symmetry_Int_Tables_number   62
_chemical_formula_structural   TaRh2
_chemical_formula_sum   'Ta4 Rh8'
_cell_volume   185.91592427
_cell_formula_units_Z   4
loop_
 _symmetry_equiv_pos_site_id
 _symmetry_equiv_pos_as_xyz
  1  'x, y, z'
  2  '-x, -y, -z'
  3  '-x, -y+1/2, z+1/2'
  4  'x, y+1/2, -z+1/2'
  5  '-x+1/2, y+1/2, -z+1/2'
  6  'x+1/2, -y+1/2, z+1/2'
  7  'x+1/2, -y, -z'
  8  '-x+1/2, y, z'
loop_
 _atom_site_type_symbol
 _atom_site_label
 _atom_site_symmetry_multiplicity
 _atom_site_fract_x
 _atom_site_fract_y
 _atom_site_fract_z
 _atom_site_occupancy
  Ta  Ta0  4  0.25000000  0.32771100  0.89485900  1.0
  Rh  Rh1  4  0.25000000  0.34508500  0.56897000  1.0
  Rh  Rh2  4  0.25000000  0.42838500  0.22380300  1.0
