# generated using pymatgen
data_Y3Rh2
_symmetry_space_group_name_H-M   I4/mcm
_cell_length_a   11.31842200
_cell_length_b   11.31842200
_cell_length_c   15.00419984
_cell_angle_alpha   112.15881300
_cell_angle_beta   112.15881300
_cell_angle_gamma   90.00000000
_symmetry_Int_Tables_number   140
_chemical_formula_structural   Y3Rh2
_chemical_formula_sum   'Y42 Rh28'
_cell_volume   1625.85832686
_cell_formula_units_Z   14
loop_
 _symmetry_equiv_pos_site_id
 _symmetry_equiv_pos_as_xyz
  1  'x, y, z'
  2  '-x, -y, -z'
  3  '-y+z, x, z'
  4  'y-z, -x, -z'
  5  '-x+z, -y+z, z'
  6  'x-z, y-z, -z'
  7  'y, -x+z, z'
  8  '-y, x-z, -z'
  9  'x-z+1/2, -y+1/2, -z'
  10  '-x+z+1/2, y+1/2, z'
  11  '-y+1/2, -x+1/2, -z'
  12  'y+1/2, x+1/2, z'
  13  '-x+1/2, y-z+1/2, -z'
  14  'x+1/2, -y+z+1/2, z'
  15  'y-z+1/2, x-z+1/2, -z'
  16  '-y+z+1/2, -x+z+1/2, z'
loop_
 _atom_site_type_symbol
 _atom_site_label
 _atom_site_symmetry_multiplicity
 _atom_site_fract_x
 _atom_site_fract_y
 _atom_site_fract_z
 _atom_site_occupancy
  Y  Y0  16  0.00448900  0.72503100  0.85738900  1.0
  Y  Y1  16  0.01722300  0.72706400  0.61359800  1.0
  Y  Y2  4  0.11205300  0.61205300  0.22410600  1.0
  Y  Y3  4  0.15043100  0.34957000  0.00000100  1.0
  Y  Y4  2  0.25000000  0.75000000  0.50000000  1.0
  Rh  Rh5  8  0.03397400  0.53397400  0.37745200  1.0
  Rh  Rh6  8  0.07286900  0.21455800  0.78742700  1.0
  Rh  Rh7  4  0.09630500  0.59630500  0.00000000  1.0
  Rh  Rh8  4  0.13356900  0.13356900  0.26713800  1.0
  Rh  Rh9  2  0.00000000  0.00000000  0.00000000  1.0
  Rh  Rh10  2  0.25000000  0.25000000  0.50000000  1.0
