# generated using pymatgen
data_Tb2Sn5Rh3
_symmetry_space_group_name_H-M   Cmc2_1
_cell_length_a   4.46572600
_cell_length_b   7.24214000
_cell_length_c   13.44523711
_cell_angle_alpha   90.00000000
_cell_angle_beta   99.55945248
_cell_angle_gamma   90.00000000
_symmetry_Int_Tables_number   36
_chemical_formula_structural   Tb2Sn5Rh3
_chemical_formula_sum   'Tb4 Sn10 Rh6'
_cell_volume   428.79972238
_cell_formula_units_Z   2
loop_
 _symmetry_equiv_pos_site_id
 _symmetry_equiv_pos_as_xyz
  1  'x, y, z'
  2  '-x, y+1/2, -z'
  3  '-x+z, y, z'
  4  'x-z, y+1/2, -z'
loop_
 _atom_site_type_symbol
 _atom_site_label
 _atom_site_symmetry_multiplicity
 _atom_site_fract_x
 _atom_site_fract_y
 _atom_site_fract_z
 _atom_site_occupancy
  Tb  Tb0  2  0.17165500  0.75566800  0.34331000  1.0
  Tb  Tb1  2  0.47646900  0.73443800  0.95293800  1.0
  Sn  Sn2  2  0.04757200  0.90187300  0.09514400  1.0
  Sn  Sn3  2  0.12034500  0.23426500  0.24069000  1.0
  Sn  Sn4  2  0.28999800  0.97637700  0.57999600  1.0
  Sn  Sn5  2  0.29460500  0.55044100  0.58921000  1.0
  Sn  Sn6  2  0.40308900  0.10964300  0.80617800  1.0
  Rh  Rh7  2  0.05008700  0.51840500  0.10017400  1.0
  Rh  Rh8  2  0.22332000  0.26558500  0.44664000  1.0
  Rh  Rh9  2  0.39360800  0.48130400  0.78721600  1.0
