# generated using pymatgen
data_Tb2Si5Rh3
_symmetry_space_group_name_H-M   C2/c
_cell_length_a   5.71636730
_cell_length_b   8.12734807
_cell_length_c   8.12734807
_cell_angle_alpha   93.46721651
_cell_angle_beta   108.96971919
_cell_angle_gamma   108.96971919
_symmetry_Int_Tables_number   15
_chemical_formula_structural   Tb2Si5Rh3
_chemical_formula_sum   'Tb4 Si10 Rh6'
_cell_volume   331.80965554
_cell_formula_units_Z   2
loop_
 _symmetry_equiv_pos_site_id
 _symmetry_equiv_pos_as_xyz
  1  'x, y, z'
  2  '-x, -y, -z'
  3  '-x+1/2, -z, -y'
  4  'x+1/2, z, y'
loop_
 _atom_site_type_symbol
 _atom_site_label
 _atom_site_symmetry_multiplicity
 _atom_site_fract_x
 _atom_site_fract_y
 _atom_site_fract_z
 _atom_site_occupancy
  Tb  Tb0  4  0.23975300  0.59907200  0.86724800  1.0
  Si  Si1  4  0.16140100  0.26624500  0.05796700  1.0
  Si  Si2  2  0.25000000  0.22399800  0.77600200  1.0
  Si  Si3  2  0.25000000  0.48757400  0.51242600  1.0
  Si  Si4  2  0.25000000  0.78958600  0.21041400  1.0
  Rh  Rh5  4  0.12633500  0.73901500  0.46042000  1.0
  Rh  Rh6  2  0.25000000  0.99799800  0.00200200  1.0
