# generated using pymatgen
data_Y2Si5Rh3
_symmetry_space_group_name_H-M   C2/c
_cell_length_a   5.70973366
_cell_length_b   8.11473464
_cell_length_c   8.11473464
_cell_angle_alpha   93.41938155
_cell_angle_beta   108.93471427
_cell_angle_gamma   108.93471427
_symmetry_Int_Tables_number   15
_chemical_formula_structural   Y2Si5Rh3
_chemical_formula_sum   'Y4 Si10 Rh6'
_cell_volume   330.62585524
_cell_formula_units_Z   2
loop_
 _symmetry_equiv_pos_site_id
 _symmetry_equiv_pos_as_xyz
  1  'x, y, z'
  2  '-x, -y, -z'
  3  '-x+1/2, -z, -y'
  4  'x+1/2, z, y'
loop_
 _atom_site_type_symbol
 _atom_site_label
 _atom_site_symmetry_multiplicity
 _atom_site_fract_x
 _atom_site_fract_y
 _atom_site_fract_z
 _atom_site_occupancy
  Y  Y0  4  0.23993500  0.59917900  0.86713400  1.0
  Si  Si1  4  0.16122600  0.26647200  0.05800200  1.0
  Si  Si2  2  0.25000000  0.22408900  0.77591100  1.0
  Si  Si3  2  0.25000000  0.48774400  0.51225600  1.0
  Si  Si4  2  0.25000000  0.78968000  0.21032000  1.0
  Rh  Rh5  4  0.12625400  0.73970700  0.46045100  1.0
  Rh  Rh6  2  0.25000000  0.99796200  0.00203800  1.0
