# generated using pymatgen
data_Sc4Si8Rh3.2
_symmetry_space_group_name_H-M   Pnma
_cell_length_a   4.04363500
_cell_length_b   6.34639100
_cell_length_c   9.58178300
_cell_angle_alpha   90.00000000
_cell_angle_beta   90.00000000
_cell_angle_gamma   90.00000000
_symmetry_Int_Tables_number   62
_chemical_formula_structural   Sc4Si8Rh3.2
_chemical_formula_sum   'Sc4 Si8 Rh3.2'
_cell_volume   245.89239865
_cell_formula_units_Z   1
loop_
 _symmetry_equiv_pos_site_id
 _symmetry_equiv_pos_as_xyz
  1  'x, y, z'
  2  '-x, -y, -z'
  3  '-x, -y+1/2, z+1/2'
  4  'x, y+1/2, -z+1/2'
  5  '-x+1/2, y+1/2, -z+1/2'
  6  'x+1/2, -y+1/2, z+1/2'
  7  'x+1/2, -y, -z'
  8  '-x+1/2, y, z'
loop_
 _atom_site_type_symbol
 _atom_site_label
 _atom_site_symmetry_multiplicity
 _atom_site_fract_x
 _atom_site_fract_y
 _atom_site_fract_z
 _atom_site_occupancy
  Sc  Sc0  4  0.25000000  0.24002500  0.68217500  1.0
  Si  Si1  4  0.25000000  0.23139700  0.97145800  1.0
  Si  Si2  4  0.25000000  0.45657000  0.34151900  1.0
  Rh  Rh3  4  0.25000000  0.08396100  0.40034300  0.8
