# generated using pymatgen
data_Sc5(Si5Rh2)2
_symmetry_space_group_name_H-M   P4/mbm
_cell_length_a   4.06361700
_cell_length_b   12.41833200
_cell_length_c   12.41833200
_cell_angle_alpha   90.00000000
_cell_angle_beta   90.00000000
_cell_angle_gamma   90.00000000
_symmetry_Int_Tables_number   127
_chemical_formula_structural   Sc5(Si5Rh2)2
_chemical_formula_sum   'Sc10 Si20 Rh8'
_cell_volume   626.67057237
_cell_formula_units_Z   2
loop_
 _symmetry_equiv_pos_site_id
 _symmetry_equiv_pos_as_xyz
  1  'x, y, z'
  2  '-x, -y, -z'
  3  'x, -z, y'
  4  '-x, z, -y'
  5  'x, -y, -z'
  6  '-x, y, z'
  7  'x, z, -y'
  8  '-x, -z, y'
  9  '-x, y+1/2, -z+1/2'
  10  'x, -y+1/2, z+1/2'
  11  '-x, -z+1/2, -y+1/2'
  12  'x, z+1/2, y+1/2'
  13  '-x, -y+1/2, z+1/2'
  14  'x, y+1/2, -z+1/2'
  15  '-x, z+1/2, y+1/2'
  16  'x, -z+1/2, -y+1/2'
loop_
 _atom_site_type_symbol
 _atom_site_label
 _atom_site_symmetry_multiplicity
 _atom_site_fract_x
 _atom_site_fract_y
 _atom_site_fract_z
 _atom_site_occupancy
  Sc  Sc0  4  0.50000000  0.11340000  0.61340000  1.0
  Sc  Sc1  4  0.50000000  0.17519500  0.32480500  1.0
  Sc  Sc2  2  0.00000000  0.00000000  0.00000000  1.0
  Si  Si3  8  0.00000000  0.16359400  0.79889600  1.0
  Si  Si4  8  0.50000000  0.00276900  0.15289100  1.0
  Si  Si5  4  0.00000000  0.06589600  0.43410400  1.0
  Rh  Rh6  8  0.00000000  0.02081000  0.24598700  1.0
