# generated using pymatgen
data_Sr10Ti(RuO5)4
_symmetry_space_group_name_H-M   I4/mmm
_cell_length_a   3.91550606
_cell_length_b   3.91550606
_cell_length_c   32.25025012
_cell_angle_alpha   93.48028388
_cell_angle_beta   93.48028192
_cell_angle_gamma   90.00000000
_symmetry_Int_Tables_number   139
_chemical_formula_structural   Sr10Ti(RuO5)4
_chemical_formula_sum   'Sr10 Ti1 Ru4 O20'
_cell_volume   492.60922593
_cell_formula_units_Z   1
loop_
 _symmetry_equiv_pos_site_id
 _symmetry_equiv_pos_as_xyz
  1  'x, y, z'
  2  '-x, -y, -z'
  3  '-y+z, x, z'
  4  'y-z, -x, -z'
  5  '-x+z, -y+z, z'
  6  'x-z, y-z, -z'
  7  'y, -x+z, z'
  8  '-y, x-z, -z'
  9  'x-z, -y, -z'
  10  '-x+z, y, z'
  11  '-y, -x, -z'
  12  'y, x, z'
  13  '-x, y-z, -z'
  14  'x, -y+z, z'
  15  'y-z, x-z, -z'
  16  '-y+z, -x+z, z'
loop_
 _atom_site_type_symbol
 _atom_site_label
 _atom_site_symmetry_multiplicity
 _atom_site_fract_x
 _atom_site_fract_y
 _atom_site_fract_z
 _atom_site_occupancy
  Sr  Sr0  2  0.07041407  0.07041408  0.14082815  1.0
  Sr  Sr1  2  0.12944869  0.12944868  0.25889737  1.0
  Sr  Sr2  2  0.27053761  0.27053762  0.54107523  1.0
  Sr  Sr3  2  0.32946341  0.32946342  0.65892683  1.0
  Sr  Sr4  2  0.47096781  0.47096781  0.94193562  1.0
  Ti  Ti5  1  0.00000000  0.00000000  0.00000000  1.0
  Ru  Ru6  2  0.19999415  0.19999416  0.39998831  1.0
  Ru  Ru7  2  0.40002032  0.40002032  0.80004064  1.0
  O  O8  4  0.09997634  0.59997635  0.19995269  1.0
  O  O9  4  0.20000332  0.70000333  0.40000665  1.0
  O  O10  2  0.00000000  0.50000000  0.00000000  1.0
  O  O11  2  0.03148204  0.03148204  0.06296408  1.0
  O  O12  2  0.16739202  0.16739201  0.33478403  1.0
  O  O13  2  0.23261085  0.23261085  0.46522170  1.0
  O  O14  2  0.36739108  0.36739108  0.73478216  1.0
  O  O15  2  0.43265064  0.43265064  0.86530128  1.0
