# generated using pymatgen
data_Ru2W3
_symmetry_space_group_name_H-M   Cmm2
_cell_length_a   4.98114800
_cell_length_b   9.63760982
_cell_length_c   9.63760982
_cell_angle_alpha   90.33351607
_cell_angle_beta   90.00000000
_cell_angle_gamma   90.00000000
_symmetry_Int_Tables_number   35
_chemical_formula_structural   Ru2W3
_chemical_formula_sum   'Ru12 W18'
_cell_volume   462.65873668
_cell_formula_units_Z   6
loop_
 _symmetry_equiv_pos_site_id
 _symmetry_equiv_pos_as_xyz
  1  'x, y, z'
  2  'x, -y, -z'
  3  'x, -z, -y'
  4  'x, z, y'
loop_
 _atom_site_type_symbol
 _atom_site_label
 _atom_site_symmetry_multiplicity
 _atom_site_fract_x
 _atom_site_fract_y
 _atom_site_fract_z
 _atom_site_occupancy
  Ru  Ru0  4  0.00093200  0.06785800  0.73631800  1.0
  Ru  Ru1  4  0.49828600  0.23567600  0.43369600  1.0
  Ru  Ru2  2  0.25032400  0.31772600  0.68227400  1.0
  Ru  Ru3  1  0.00100400  0.00000000  0.00000000  1.0
  Ru  Ru4  1  0.50814000  0.50000000  0.50000000  1.0
  W  W5  4  0.00144300  0.13176800  0.46460300  1.0
  W  W6  4  0.49852500  0.03961000  0.62962800  1.0
  W  W7  2  0.25069400  0.18217600  0.18217600  1.0
  W  W8  2  0.49833900  0.10234500  0.89765500  1.0
  W  W9  2  0.74888000  0.18089500  0.18089500  1.0
  W  W10  2  0.74977200  0.31932100  0.68067900  1.0
  W  W11  2  0.99904600  0.39708900  0.39708900  1.0
