# generated using pymatgen
data_Zr2Si4Ru3
_symmetry_space_group_name_H-M   C2/c
_cell_length_a   5.39080800
_cell_length_b   9.91847089
_cell_length_c   10.99964326
_cell_angle_alpha   79.38082689
_cell_angle_beta   75.81552615
_cell_angle_gamma   74.23121402
_symmetry_Int_Tables_number   15
_chemical_formula_structural   Zr2Si4Ru3
_chemical_formula_sum   'Zr8 Si16 Ru12'
_cell_volume   544.36224035
_cell_formula_units_Z   4
loop_
 _symmetry_equiv_pos_site_id
 _symmetry_equiv_pos_as_xyz
  1  'x, y, z'
  2  '-x, -y, -z'
  3  'x+y+z, -y+1/2, -z+1/2'
  4  '-x-y-z, y+1/2, z+1/2'
loop_
 _atom_site_type_symbol
 _atom_site_label
 _atom_site_symmetry_multiplicity
 _atom_site_fract_x
 _atom_site_fract_y
 _atom_site_fract_z
 _atom_site_occupancy
  Zr  Zr0  4  0.03937200  0.52988000  0.13717900  1.0
  Zr  Zr1  4  0.29988800  0.99832800  0.14835300  1.0
  Si  Si2  4  0.02837800  0.62031100  0.60510900  1.0
  Si  Si3  4  0.08696800  0.27537800  0.06498200  1.0
  Si  Si4  4  0.14152100  0.07449300  0.39552200  1.0
  Si  Si5  2  0.13010800  0.75000000  0.25000000  1.0
  Si  Si6  2  0.38012800  0.25000000  0.75000000  1.0
  Ru  Ru7  4  0.08866000  0.12798400  0.91494800  1.0
  Ru  Ru8  4  0.17125200  0.75532200  0.72050900  1.0
  Ru  Ru9  4  0.23578700  0.81302400  0.43418800  1.0
