# generated using pymatgen
data_Ta1Se1.2S0.8
_symmetry_space_group_name_H-M   P3m1
_cell_length_a   3.43332800
_cell_length_b   3.43332777
_cell_length_c   6.39995000
_cell_angle_alpha   90.00000000
_cell_angle_beta   90.00000000
_cell_angle_gamma   120.00000223
_symmetry_Int_Tables_number   156
_chemical_formula_structural   Ta1Se1.2S0.8
_chemical_formula_sum   'Ta1 Se1.2 S0.8'
_cell_volume   65.33377681
_cell_formula_units_Z   1
loop_
 _symmetry_equiv_pos_site_id
 _symmetry_equiv_pos_as_xyz
  1  'x, y, z'
  2  '-y, x-y, z'
  3  '-x+y, -x, z'
  4  '-y, -x, z'
  5  '-x+y, y, z'
  6  'x, x-y, z'
loop_
 _atom_site_type_symbol
 _atom_site_label
 _atom_site_symmetry_multiplicity
 _atom_site_fract_x
 _atom_site_fract_y
 _atom_site_fract_z
 _atom_site_occupancy
  Ta  Ta0  1  0.33333333  0.66666667  0.98940300  1.0
  Se  Se1  1  0.66666667  0.33333333  0.25609200  1.0
  S  S2  1  0.00000000  0.00000000  0.75450500  0.8
  Se  Se3  1  0.00000000  0.00000000  0.75450500  0.2
