# generated using pymatgen
data_S
_symmetry_space_group_name_H-M   P2_12_12_1
_cell_length_a   8.26149700
_cell_length_b   12.49819300
_cell_length_c   22.76662300
_cell_angle_alpha   90.00000000
_cell_angle_beta   90.00000000
_cell_angle_gamma   90.00000000
_symmetry_Int_Tables_number   19
_chemical_formula_structural   S
_chemical_formula_sum   S72
_cell_volume   2350.73997308
_cell_formula_units_Z   72
loop_
 _symmetry_equiv_pos_site_id
 _symmetry_equiv_pos_as_xyz
  1  'x, y, z'
  2  '-x+1/2, -y, z+1/2'
  3  'x+1/2, -y+1/2, -z'
  4  '-x, y+1/2, -z+1/2'
loop_
 _atom_site_type_symbol
 _atom_site_label
 _atom_site_symmetry_multiplicity
 _atom_site_fract_x
 _atom_site_fract_y
 _atom_site_fract_z
 _atom_site_occupancy
  S  S0  4  0.00691200  0.67802700  0.91113400  1.0
  S  S1  4  0.01770300  0.93741600  0.06778000  1.0
  S  S2  4  0.02078900  0.69943800  0.76617200  1.0
  S  S3  4  0.02545000  0.41334400  0.08755800  1.0
  S  S4  4  0.02782600  0.43375800  0.23258200  1.0
  S  S5  4  0.02901800  0.19904500  0.93459400  1.0
  S  S6  4  0.06139700  0.12697100  0.17372400  1.0
  S  S7  4  0.06186500  0.39113700  0.82925800  1.0
  S  S8  4  0.10468500  0.79915200  0.10660700  1.0
  S  S9  4  0.11395200  0.76132900  0.84322900  1.0
  S  S10  4  0.12269000  0.06379800  0.89475000  1.0
  S  S11  4  0.12747300  0.49605400  0.15664600  1.0
  S  S12  4  0.15485800  0.03777600  0.24241700  1.0
  S  S13  4  0.15674400  0.06409100  0.09764800  1.0
  S  S14  4  0.15970700  0.30382100  0.76061900  1.0
  S  S15  4  0.15989400  0.32968100  0.90531100  1.0
  S  S16  4  0.18044700  0.99105900  0.44212500  1.0
  S  S17  4  0.19886000  0.25574500  0.55916000  1.0
