# generated using pymatgen
data_S
_symmetry_space_group_name_H-M   P2/c
_cell_length_a   9.24805400
_cell_length_b   9.72109628
_cell_length_c   13.64206100
_cell_angle_alpha   90.00000000
_cell_angle_beta   90.00000000
_cell_angle_gamma   109.92842043
_symmetry_Int_Tables_number   13
_chemical_formula_structural   S
_chemical_formula_sum   S32
_cell_volume   1152.99785247
_cell_formula_units_Z   32
loop_
 _symmetry_equiv_pos_site_id
 _symmetry_equiv_pos_as_xyz
  1  'x, y, z'
  2  '-x, -y, -z'
  3  '-x+1/2, -y+1/2, z'
  4  'x+1/2, y+1/2, -z'
loop_
 _atom_site_type_symbol
 _atom_site_label
 _atom_site_symmetry_multiplicity
 _atom_site_fract_x
 _atom_site_fract_y
 _atom_site_fract_z
 _atom_site_occupancy
  S  S0  4  0.00175800  0.73488900  0.55583100  1.0
  S  S1  4  0.05629600  0.84050100  0.42273700  1.0
  S  S2  4  0.13147700  0.71392300  0.32774700  1.0
  S  S3  4  0.13706400  0.42142100  0.10733200  1.0
  S  S4  4  0.17176900  0.30447000  0.87959400  1.0
  S  S5  4  0.18497900  0.81776500  0.65041000  1.0
  S  S6  4  0.22000000  0.13761500  0.20183500  1.0
  S  S7  4  0.24617500  0.48028400  0.97408200  1.0
