# generated using pymatgen
data_S
_symmetry_space_group_name_H-M   P3
_cell_length_a   5.31359100
_cell_length_b   15.49898800
_cell_length_c   15.49898770
_cell_angle_alpha   120.00000063
_cell_angle_beta   90.00000000
_cell_angle_gamma   90.00000000
_symmetry_Int_Tables_number   143
_chemical_formula_structural   S
_chemical_formula_sum   S18
_cell_volume   1105.41518773
_cell_formula_units_Z   18
loop_
 _symmetry_equiv_pos_site_id
 _symmetry_equiv_pos_as_xyz
  1  'x, y, z'
  2  'x, -y+z, -y'
  3  'x, -z, y-z'
loop_
 _atom_site_type_symbol
 _atom_site_label
 _atom_site_symmetry_multiplicity
 _atom_site_fract_x
 _atom_site_fract_y
 _atom_site_fract_z
 _atom_site_occupancy
  S  S0  3  0.24401100  0.57838900  0.27803900  1.0
  S  S1  3  0.63698800  0.33383400  0.21468300  1.0
  S  S2  3  0.68225600  0.06330300  0.58249200  1.0
  S  S3  3  0.68691100  0.14210500  0.72541100  1.0
  S  S4  3  0.76108700  0.38740500  0.13636600  1.0
  S  S5  3  0.97474700  0.06506700  0.50973700  1.0
