# generated using pymatgen
data_S
_symmetry_space_group_name_H-M   C2/c
_cell_length_a   8.60580302
_cell_length_b   8.60580302
_cell_length_c   9.18514236
_cell_angle_alpha   77.77581544
_cell_angle_beta   77.77581544
_cell_angle_gamma   78.79511025
_symmetry_Int_Tables_number   15
_chemical_formula_structural   S
_chemical_formula_sum   S20
_cell_volume   641.74630686
_cell_formula_units_Z   20
loop_
 _symmetry_equiv_pos_site_id
 _symmetry_equiv_pos_as_xyz
  1  'x, y, z'
  2  '-x, -y, -z'
  3  '-y, -x, -z+1/2'
  4  'y, x, z+1/2'
loop_
 _atom_site_type_symbol
 _atom_site_label
 _atom_site_symmetry_multiplicity
 _atom_site_fract_x
 _atom_site_fract_y
 _atom_site_fract_z
 _atom_site_occupancy
  S  S0  4  0.00024000  0.60187700  0.19712300  1.0
  S  S1  4  0.01678000  0.12764700  0.26927600  1.0
  S  S2  4  0.07309500  0.24701600  0.64617500  1.0
  S  S3  4  0.23275900  0.61046500  0.08319500  1.0
  S  S4  4  0.38114700  0.47386200  0.23175300  1.0
