# generated using pymatgen
data_S
_symmetry_space_group_name_H-M   P3
_cell_length_a   4.92590800
_cell_length_b   14.48037600
_cell_length_c   14.48037559
_cell_angle_alpha   120.00000094
_cell_angle_beta   90.00000000
_cell_angle_gamma   90.00000000
_symmetry_Int_Tables_number   143
_chemical_formula_structural   S
_chemical_formula_sum   S18
_cell_volume   894.49226538
_cell_formula_units_Z   18
loop_
 _symmetry_equiv_pos_site_id
 _symmetry_equiv_pos_as_xyz
  1  'x, y, z'
  2  'x, -z, y-z'
  3  'x, -y+z, -y'
loop_
 _atom_site_type_symbol
 _atom_site_label
 _atom_site_symmetry_multiplicity
 _atom_site_fract_x
 _atom_site_fract_y
 _atom_site_fract_z
 _atom_site_occupancy
  S  S0  3  0.35705100  0.54903600  0.34696600  1.0
  S  S1  3  0.55898500  0.17267100  0.74183000  1.0
  S  S2  3  0.66323600  0.37892300  0.12078800  1.0
  S  S3  3  0.67530900  0.46454800  0.27403300  1.0
  S  S4  3  0.80581900  0.06238300  0.65004700  1.0
  S  S5  3  0.92560100  0.05545000  0.51934000  1.0
