# generated using pymatgen
data_S
_symmetry_space_group_name_H-M   P2
_cell_length_a   10.22707600
_cell_length_b   14.09050300
_cell_length_c   19.20966032
_cell_angle_alpha   111.23276575
_cell_angle_beta   90.00000000
_cell_angle_gamma   90.00000000
_symmetry_Int_Tables_number   3
_chemical_formula_structural   S
_chemical_formula_sum   S80
_cell_volume   2580.28704944
_cell_formula_units_Z   80
loop_
 _symmetry_equiv_pos_site_id
 _symmetry_equiv_pos_as_xyz
  1  'x, y, z'
  2  'x, -y, -z'
loop_
 _atom_site_type_symbol
 _atom_site_label
 _atom_site_symmetry_multiplicity
 _atom_site_fract_x
 _atom_site_fract_y
 _atom_site_fract_z
 _atom_site_occupancy
  S  S0  2  0.10274500  0.18186100  0.76299100  1.0
  S  S1  2  0.10332400  0.46884000  0.73205600  1.0
  S  S2  2  0.13431200  0.10372700  0.20872500  1.0
  S  S3  2  0.14045700  0.24523000  0.29386700  1.0
  S  S4  2  0.18899300  0.39773300  0.19852100  1.0
  S  S5  2  0.19467500  0.04906900  0.69709800  1.0
  S  S6  2  0.24175900  0.29647900  0.79048900  1.0
  S  S7  2  0.24499100  0.35624200  0.70669700  1.0
  S  S8  2  0.27669000  0.01529300  0.23170400  1.0
  S  S9  2  0.28012700  0.33077000  0.26559100  1.0
  S  S10  2  0.30980500  0.15784600  0.01672300  1.0
  S  S11  2  0.32355600  0.18527300  0.46846100  1.0
  S  S12  2  0.34521900  0.47005300  0.04194000  1.0
  S  S13  2  0.36800900  0.12493100  0.54907700  1.0
  S  S14  2  0.39582200  0.22288700  0.94721400  1.0
  S  S15  2  0.42431700  0.42504800  0.55001100  1.0
  S  S16  2  0.45115200  0.07075400  0.04246300  1.0
  S  S17  2  0.47166600  0.28567400  0.46924600  1.0
  S  S18  2  0.48502900  0.35625200  0.01492800  1.0
  S  S19  2  0.60001900  0.17455400  0.25207700  1.0
  S  S20  2  0.61338400  0.46080400  0.22184100  1.0
  S  S21  2  0.61780800  0.11123100  0.71791000  1.0
  S  S22  2  0.66047700  0.25096200  0.79950200  1.0
  S  S23  2  0.66589500  0.40010800  0.69887600  1.0
  S  S24  2  0.71724400  0.04876800  0.20074800  1.0
  S  S25  2  0.72194500  0.29861000  0.29931100  1.0
  S  S26  2  0.76158500  0.35907900  0.21812900  1.0
  S  S27  2  0.76605300  0.01213100  0.71949000  1.0
  S  S28  2  0.78283900  0.32713800  0.75175900  1.0
  S  S29  2  0.80928600  0.15818500  0.51726300  1.0
  S  S30  2  0.82508800  0.18622600  0.96937300  1.0
  S  S31  2  0.84397700  0.47056700  0.54217200  1.0
  S  S32  2  0.86842600  0.12492400  0.04978000  1.0
  S  S33  2  0.89593100  0.22339300  0.44817200  1.0
  S  S34  2  0.92432800  0.42597500  0.05124900  1.0
  S  S35  2  0.94998500  0.07054900  0.54280700  1.0
  S  S36  2  0.97303200  0.28688700  0.97060800  1.0
  S  S37  2  0.98423400  0.35714700  0.51611900  1.0
  S  S38  1  0.30466600  0.50000000  0.50000000  1.0
  S  S39  1  0.48783900  0.00000000  0.50000000  1.0
  S  S40  1  0.80557200  0.50000000  0.00000000  1.0
  S  S41  1  0.98775300  0.00000000  0.00000000  1.0
