# generated using pymatgen
data_S
_symmetry_space_group_name_H-M   P-1
_cell_length_a   6.05936900
_cell_length_b   10.34384173
_cell_length_c   15.54443531
_cell_angle_alpha   95.13797164
_cell_angle_beta   97.95035588
_cell_angle_gamma   100.77510675
_symmetry_Int_Tables_number   2
_chemical_formula_structural   S
_chemical_formula_sum   S28
_cell_volume   941.21061234
_cell_formula_units_Z   28
loop_
 _symmetry_equiv_pos_site_id
 _symmetry_equiv_pos_as_xyz
  1  'x, y, z'
  2  '-x, -y, -z'
loop_
 _atom_site_type_symbol
 _atom_site_label
 _atom_site_symmetry_multiplicity
 _atom_site_fract_x
 _atom_site_fract_y
 _atom_site_fract_z
 _atom_site_occupancy
  S  S0  2  0.01642400  0.70073100  0.93123900  1.0
  S  S1  2  0.02554500  0.17932200  0.16675500  1.0
  S  S2  2  0.08795900  0.43642100  0.72352800  1.0
  S  S3  2  0.11765900  0.01195700  0.88804700  1.0
  S  S4  2  0.12407200  0.80684200  0.59569300  1.0
  S  S5  2  0.20235500  0.43595800  0.85490700  1.0
  S  S6  2  0.28509300  0.67679700  0.53115600  1.0
  S  S7  2  0.28972800  0.99557700  0.58374700  1.0
  S  S8  2  0.30563800  0.62733500  0.91685100  1.0
  S  S9  2  0.34063000  0.42620600  0.64796400  1.0
  S  S10  2  0.41696700  0.95051500  0.32458200  1.0
  S  S11  2  0.46351700  0.05268900  0.88306200  1.0
  S  S12  2  0.47705600  0.83595300  0.21810900  1.0
  S  S13  2  0.49760100  0.61343600  0.62711900  1.0
