# generated using pymatgen
data_S
_symmetry_space_group_name_H-M   Cmcm
_cell_length_a   3.72286500
_cell_length_b   4.41954213
_cell_length_c   4.41954213
_cell_angle_alpha   67.92570313
_cell_angle_beta   89.61618583
_cell_angle_gamma   89.61618583
_symmetry_Int_Tables_number   63
_chemical_formula_structural   S
_chemical_formula_sum   S2
_cell_volume   67.38381307
_cell_formula_units_Z   2
loop_
 _symmetry_equiv_pos_site_id
 _symmetry_equiv_pos_as_xyz
  1  'x, y, z'
  2  '-x, -y, -z'
  3  'x+1/2, -y, -z'
  4  '-x+1/2, y, z'
  5  '-x, z+1/2, y+1/2'
  6  'x, -z+1/2, -y+1/2'
  7  '-x+1/2, -z+1/2, -y+1/2'
  8  'x+1/2, z+1/2, y+1/2'
loop_
 _atom_site_type_symbol
 _atom_site_label
 _atom_site_symmetry_multiplicity
 _atom_site_fract_x
 _atom_site_fract_y
 _atom_site_fract_z
 _atom_site_occupancy
  S  S0  2  0.25000000  0.59688300  0.90311700  1.0
