# generated using pymatgen
data_S
_symmetry_space_group_name_H-M   P2_1/c
_cell_length_a   13.61825400
_cell_length_b   14.01928100
_cell_length_c   19.11073649
_cell_angle_alpha   108.77939707
_cell_angle_beta   90.00000000
_cell_angle_gamma   90.00000000
_symmetry_Int_Tables_number   14
_chemical_formula_structural   S
_chemical_formula_sum   S104
_cell_volume   3454.35388546
_cell_formula_units_Z   104
loop_
 _symmetry_equiv_pos_site_id
 _symmetry_equiv_pos_as_xyz
  1  'x, y, z'
  2  '-x, -y, -z'
  3  'x+1/2, -y, -z+1/2'
  4  '-x+1/2, y, z+1/2'
loop_
 _atom_site_type_symbol
 _atom_site_label
 _atom_site_symmetry_multiplicity
 _atom_site_fract_x
 _atom_site_fract_y
 _atom_site_fract_z
 _atom_site_occupancy
  S  S0  4  0.00541700  0.33231600  0.99339100  1.0
  S  S1  4  0.03804400  0.27492800  0.34897700  1.0
  S  S2  4  0.03988000  0.17770200  0.96840300  1.0
  S  S3  4  0.04509200  0.37957100  0.90969500  1.0
  S  S4  4  0.05812200  0.40050500  0.22625500  1.0
  S  S5  4  0.05914300  0.26339600  0.23697200  1.0
  S  S6  4  0.07126700  0.65682200  0.17384600  1.0
  S  S7  4  0.08294200  0.60393200  0.45746600  1.0
  S  S8  4  0.09268500  0.89472300  0.04322000  1.0
  S  S9  4  0.09873200  0.07447300  0.71778400  1.0
  S  S10  4  0.10468200  0.05710000  0.60639200  1.0
  S  S11  4  0.10839300  0.75665000  0.48675700  1.0
  S  S12  4  0.13045300  0.90596100  0.94114300  1.0
  S  S13  4  0.14962500  0.79298600  0.39432500  1.0
  S  S14  4  0.15939100  0.07977000  0.36999800  1.0
  S  S15  4  0.16307200  0.29126700  0.61845900  1.0
  S  S16  4  0.16913000  0.23191100  0.38215500  1.0
  S  S17  4  0.17424600  0.95958000  0.73970600  1.0
  S  S18  4  0.17932900  0.99744800  0.26012000  1.0
  S  S19  4  0.19676000  0.68344500  0.13003400  1.0
  S  S20  4  0.19768100  0.35370000  0.73221600  1.0
  S  S21  4  0.20033400  0.77513800  0.87986400  1.0
  S  S22  4  0.20479100  0.46511200  0.24885800  1.0
  S  S23  4  0.21308100  0.53469900  0.47135800  1.0
  S  S24  4  0.21677000  0.14752700  0.58933200  1.0
  S  S25  4  0.22440700  0.54726100  0.58056000  1.0
