# generated using pymatgen
data_S
_symmetry_space_group_name_H-M   C2/c
_cell_length_a   3.72412200
_cell_length_b   5.08647096
_cell_length_c   5.08647096
_cell_angle_alpha   62.82127845
_cell_angle_beta   70.24909726
_cell_angle_gamma   70.24909726
_symmetry_Int_Tables_number   15
_chemical_formula_structural   S
_chemical_formula_sum   S2
_cell_volume   78.70727072
_cell_formula_units_Z   2
loop_
 _symmetry_equiv_pos_site_id
 _symmetry_equiv_pos_as_xyz
  1  'x, y, z'
  2  '-x, -y, -z'
  3  '-x+1/2, -z+1/2, -y+1/2'
  4  'x+1/2, z+1/2, y+1/2'
loop_
 _atom_site_type_symbol
 _atom_site_label
 _atom_site_symmetry_multiplicity
 _atom_site_fract_x
 _atom_site_fract_y
 _atom_site_fract_z
 _atom_site_occupancy
  S  S0  2  0.25000000  0.90975500  0.59024500  1.0
