# generated using pymatgen
data_S
_symmetry_space_group_name_H-M   P3_221
_cell_length_a   4.40337800
_cell_length_b   8.44086800
_cell_length_c   8.44086790
_cell_angle_alpha   120.00000040
_cell_angle_beta   90.00000000
_cell_angle_gamma   90.00000000
_symmetry_Int_Tables_number   154
_chemical_formula_structural   S
_chemical_formula_sum   S9
_cell_volume   271.70073331
_cell_formula_units_Z   9
loop_
 _symmetry_equiv_pos_site_id
 _symmetry_equiv_pos_as_xyz
  1  'x, y, z'
  2  'x+2/3, -z, y-z'
  3  'x+1/3, -y+z, -y'
  4  '-x, y-z, -z'
  5  '-x+1/3, -y, -y+z'
  6  '-x+2/3, z, y'
loop_
 _atom_site_type_symbol
 _atom_site_label
 _atom_site_symmetry_multiplicity
 _atom_site_fract_x
 _atom_site_fract_y
 _atom_site_fract_z
 _atom_site_occupancy
  S  S0  6  0.05932900  0.44225200  0.68882100  1.0
  S  S1  3  0.16666700  0.00000000  0.89989000  1.0
