# generated using pymatgen
data_S
_symmetry_space_group_name_H-M   P2_1
_cell_length_a   11.59914200
_cell_length_b   11.85825300
_cell_length_c   11.86138595
_cell_angle_alpha   98.35936146
_cell_angle_beta   90.00000000
_cell_angle_gamma   90.00000000
_symmetry_Int_Tables_number   4
_chemical_formula_structural   S
_chemical_formula_sum   S48
_cell_volume   1614.14763016
_cell_formula_units_Z   48
loop_
 _symmetry_equiv_pos_site_id
 _symmetry_equiv_pos_as_xyz
  1  'x, y, z'
  2  'x+1/2, -y, -z'
loop_
 _atom_site_type_symbol
 _atom_site_label
 _atom_site_symmetry_multiplicity
 _atom_site_fract_x
 _atom_site_fract_y
 _atom_site_fract_z
 _atom_site_occupancy
  S  S0  2  0.01000000  0.73658000  0.11796600  1.0
  S  S1  2  0.01916500  0.24208600  0.34158300  1.0
  S  S2  2  0.05839600  0.83315500  0.66382600  1.0
  S  S3  2  0.09249300  0.94084500  0.54611600  1.0
  S  S4  2  0.11853400  0.56225400  0.55024400  1.0
  S  S5  2  0.14681000  0.43752900  0.84023500  1.0
  S  S6  2  0.14886000  0.27671900  0.74602400  1.0
  S  S7  2  0.15414100  0.07534500  0.00185500  1.0
  S  S8  2  0.17384200  0.42411700  0.00969400  1.0
  S  S9  2  0.17927600  0.55847800  0.38624700  1.0
  S  S10  2  0.18025800  0.21254400  0.26964700  1.0
  S  S11  2  0.18070000  0.05470300  0.16963400  1.0
  S  S12  2  0.26427500  0.92842800  0.50088300  1.0
  S  S13  2  0.28250000  0.81632600  0.35165000  1.0
  S  S14  2  0.31033100  0.24651800  0.67505800  1.0
  S  S15  2  0.31975300  0.76447900  0.86511300  1.0
  S  S16  2  0.32604500  0.65724400  0.38920400  1.0
  S  S17  2  0.34537700  0.45334000  0.04903000  1.0
  S  S18  2  0.39850600  0.79506100  0.02249200  1.0
  S  S19  2  0.40689500  0.15360700  0.77507900  1.0
  S  S20  2  0.42384100  0.65972300  0.75426900  1.0
  S  S21  2  0.43141700  0.29960500  0.03913400  1.0
  S  S22  2  0.48236300  0.95029800  0.03853100  1.0
  S  S23  2  0.48991200  0.31720400  0.41865900  1.0
