# generated using pymatgen
data_S
_symmetry_space_group_name_H-M   Pbcn
_cell_length_a   9.55845800
_cell_length_b   14.21192100
_cell_length_c   19.74620100
_cell_angle_alpha   90.00000000
_cell_angle_beta   90.00000000
_cell_angle_gamma   90.00000000
_symmetry_Int_Tables_number   60
_chemical_formula_structural   S
_chemical_formula_sum   S80
_cell_volume   2682.40391552
_cell_formula_units_Z   80
loop_
 _symmetry_equiv_pos_site_id
 _symmetry_equiv_pos_as_xyz
  1  'x, y, z'
  2  '-x, -y, -z'
  3  'x+1/2, -y+1/2, -z+1/2'
  4  '-x+1/2, y+1/2, z+1/2'
  5  '-x, -y+1/2, z+1/2'
  6  'x, y+1/2, -z+1/2'
  7  '-x+1/2, y, -z'
  8  'x+1/2, -y, z'
loop_
 _atom_site_type_symbol
 _atom_site_label
 _atom_site_symmetry_multiplicity
 _atom_site_fract_x
 _atom_site_fract_y
 _atom_site_fract_z
 _atom_site_occupancy
  S  S0  8  0.03605800  0.19877000  0.67922300  1.0
  S  S1  8  0.07475400  0.10164700  0.92701900  1.0
  S  S2  8  0.08043700  0.40994100  0.75116900  1.0
  S  S3  8  0.13326600  0.26938700  0.75764000  1.0
  S  S4  8  0.16591100  0.20587700  0.59578200  1.0
  S  S5  8  0.17071900  0.47463200  0.59376300  1.0
  S  S6  8  0.19482400  0.09454200  0.39971300  1.0
  S  S7  8  0.21125300  0.48487200  0.95113200  1.0
  S  S8  8  0.23155200  0.19735200  0.94857100  1.0
  S  S9  8  0.23289300  0.47593400  0.69422700  1.0
