# generated using pymatgen
data_S
_symmetry_space_group_name_H-M   Pca2_1
_cell_length_a   9.02143300
_cell_length_b   16.27005800
_cell_length_c   20.32062400
_cell_angle_alpha   90.00000000
_cell_angle_beta   90.00000000
_cell_angle_gamma   90.00000000
_symmetry_Int_Tables_number   29
_chemical_formula_structural   S
_chemical_formula_sum   S88
_cell_volume   2982.64570952
_cell_formula_units_Z   88
loop_
 _symmetry_equiv_pos_site_id
 _symmetry_equiv_pos_as_xyz
  1  'x, y, z'
  2  '-x, -y, z+1/2'
  3  'x, -y+1/2, z+1/2'
  4  '-x, y+1/2, z'
loop_
 _atom_site_type_symbol
 _atom_site_label
 _atom_site_symmetry_multiplicity
 _atom_site_fract_x
 _atom_site_fract_y
 _atom_site_fract_z
 _atom_site_occupancy
  S  S0  4  0.01231800  0.72431400  0.25070600  1.0
  S  S1  4  0.01781700  0.58613600  0.89279800  1.0
  S  S2  4  0.03840700  0.10837400  0.21951100  1.0
  S  S3  4  0.04510800  0.66666667  0.97032000  1.0
  S  S4  4  0.05035400  0.69785900  0.66941500  1.0
  S  S5  4  0.07016300  0.03093100  0.42537200  1.0
  S  S6  4  0.09586900  0.57174400  0.48631100  1.0
  S  S7  4  0.14384300  0.53049800  0.22825400  1.0
  S  S8  4  0.15697600  0.16748100  0.01800700  1.0
  S  S9  4  0.20959300  0.00710700  0.63614800  1.0
  S  S10  4  0.23945100  0.63117700  0.68345000  1.0
  S  S11  4  0.26985800  0.61843800  0.42977300  1.0
  S  S12  4  0.28672000  0.24186700  0.47588300  1.0
  S  S13  4  0.33992000  0.58358400  0.09448200  1.0
  S  S14  4  0.35545900  0.21969400  0.88444000  1.0
  S  S15  4  0.41307800  0.67857200  0.62712200  1.0
  S  S16  4  0.42234200  0.22167800  0.68782600  1.0
  S  S17  4  0.45627600  0.08207300  0.14075900  1.0
  S  S18  4  0.45821200  0.55099100  0.44367300  1.0
  S  S19  4  0.45941100  0.64409300  0.89441500  1.0
  S  S20  4  0.47834900  0.16127300  0.21939000  1.0
  S  S21  4  0.49549400  0.02758900  0.86284700  1.0
