# generated using pymatgen
data_Ta1Se0.2S1.8
_symmetry_space_group_name_H-M   Fmm2
_cell_length_a   3.34210000
_cell_length_b   3.34256636
_cell_length_c   11.61378530
_cell_angle_alpha   85.87500968
_cell_angle_beta   81.72728014
_cell_angle_gamma   60.00461521
_symmetry_Int_Tables_number   42
_chemical_formula_structural   Ta1Se0.2S1.8
_chemical_formula_sum   'Ta1 Se0.2 S1.8'
_cell_volume   111.19399441
_cell_formula_units_Z   1
loop_
 _symmetry_equiv_pos_site_id
 _symmetry_equiv_pos_as_xyz
  1  'x, y, z'
  2  '-x-y, y, -z'
  3  '-x-y-z, y, z'
  4  'x+z, y, -z'
loop_
 _atom_site_type_symbol
 _atom_site_label
 _atom_site_symmetry_multiplicity
 _atom_site_fract_x
 _atom_site_fract_y
 _atom_site_fract_z
 _atom_site_occupancy
  Ta  Ta0  1  0.92445700  0.15108600  0.00000000  1.0
  S  S1  2  0.18975600  0.48445600  0.13603200  0.9
  Se  Se2  2  0.18975600  0.48445600  0.13603200  0.1
