# generated using pymatgen
data_SnS
_symmetry_space_group_name_H-M   Cmcm
_cell_length_a   4.10789600
_cell_length_b   4.11188000
_cell_length_c   6.20842502
_cell_angle_alpha   70.66121318
_cell_angle_beta   90.00000000
_cell_angle_gamma   90.00000000
_symmetry_Int_Tables_number   63
_chemical_formula_structural   SnS
_chemical_formula_sum   'Sn2 S2'
_cell_volume   98.95065069
_cell_formula_units_Z   2
loop_
 _symmetry_equiv_pos_site_id
 _symmetry_equiv_pos_as_xyz
  1  'x, y, z'
  2  '-x, -y, -z'
  3  'x+1/2, -y, -z'
  4  '-x+1/2, y, z'
  5  '-x, y+z, -z'
  6  'x, -y-z, z'
  7  '-x+1/2, -y-z, z'
  8  'x+1/2, y+z, -z'
loop_
 _atom_site_type_symbol
 _atom_site_label
 _atom_site_symmetry_multiplicity
 _atom_site_fract_x
 _atom_site_fract_y
 _atom_site_fract_z
 _atom_site_occupancy
  Sn  Sn0  2  0.25000000  0.87361100  0.25277800  1.0
  S  S1  2  0.25000000  0.65139700  0.69720600  1.0
