# generated using pymatgen
data_SnS
_symmetry_space_group_name_H-M   Aem2
_cell_length_a   4.14051947
_cell_length_b   4.14051947
_cell_length_c   22.77400700
_cell_angle_alpha   90.00000000
_cell_angle_beta   90.00000000
_cell_angle_gamma   90.59822699
_symmetry_Int_Tables_number   39
_chemical_formula_structural   SnS
_chemical_formula_sum   'Sn2 S2'
_cell_volume   390.41405086
_cell_formula_units_Z   2
loop_
 _symmetry_equiv_pos_site_id
 _symmetry_equiv_pos_as_xyz
  1  'x, y, z'
  2  '-y, -x, -z'
  3  'x+1/2, y+1/2, -z'
  4  '-y+1/2, -x+1/2, z'
loop_
 _atom_site_type_symbol
 _atom_site_label
 _atom_site_symmetry_multiplicity
 _atom_site_fract_x
 _atom_site_fract_y
 _atom_site_fract_z
 _atom_site_occupancy
  Sn  Sn0  2  0.25100000  0.24900000  0.56444500  1.0
  S  S1  2  0.21500000  0.28500000  0.45146000  1.0
