# generated using pymatgen
data_TiS
_symmetry_space_group_name_H-M   Pmmn
_cell_length_a   18.62369785
_cell_length_b   20.00706746
_cell_length_c   34.64816524
_cell_angle_alpha   90.00000000
_cell_angle_beta   90.00000000
_cell_angle_gamma   90.00000000
_symmetry_Int_Tables_number   59
_chemical_formula_structural   TiS
_chemical_formula_sum   'Ti2 S2'
_cell_volume   12910.09967884
_cell_formula_units_Z   2
loop_
 _symmetry_equiv_pos_site_id
 _symmetry_equiv_pos_as_xyz
  1  'x, y, z'
  2  'x, -y, -z'
  3  '-x, y+1/2, -z+1/2'
  4  '-x, -y+1/2, z+1/2'
  5  '-x, -y+1/2, -z+1/2'
  6  '-x, y+1/2, z+1/2'
  7  'x, -y, z'
  8  'x, y, -z'
loop_
 _atom_site_type_symbol
 _atom_site_label
 _atom_site_symmetry_multiplicity
 _atom_site_fract_x
 _atom_site_fract_y
 _atom_site_fract_z
 _atom_site_occupancy
  Ti  Ti0  2  0.11463314  0.00000000  0.00000000  1.0
  S  S1  2  0.00286186  0.00000000  0.00000000  1.0
