# generated using pymatgen
data_V3S
_symmetry_space_group_name_H-M   P4_2/nbc
_cell_length_a   4.63627200
_cell_length_b   9.33367200
_cell_length_c   9.33367200
_cell_angle_alpha   90.00000000
_cell_angle_beta   90.00000000
_cell_angle_gamma   90.00000000
_symmetry_Int_Tables_number   133
_chemical_formula_structural   V3S
_chemical_formula_sum   'V24 S8'
_cell_volume   403.90011535
_cell_formula_units_Z   8
loop_
 _symmetry_equiv_pos_site_id
 _symmetry_equiv_pos_as_xyz
  1  'x, y, z'
  2  'x+1/2, -z+1/2, y+1/2'
  3  'x, -y, -z'
  4  'x+1/2, z+1/2, -y+1/2'
  5  '-x+1/2, y, -z'
  6  '-x, -z+1/2, -y+1/2'
  7  '-x+1/2, -y, z'
  8  '-x, z+1/2, y+1/2'
  9  '-x+1/2, -y+1/2, -z+1/2'
  10  '-x, z, -y'
  11  '-x+1/2, y+1/2, z+1/2'
  12  '-x, -z, y'
  13  'x, -y+1/2, z+1/2'
  14  'x+1/2, z, y'
  15  'x, y+1/2, -z+1/2'
  16  'x+1/2, -z, -y'
loop_
 _atom_site_type_symbol
 _atom_site_label
 _atom_site_symmetry_multiplicity
 _atom_site_fract_x
 _atom_site_fract_y
 _atom_site_fract_z
 _atom_site_occupancy
  V  V0  8  0.00000000  0.08995100  0.58995100  1.0
  V  V1  8  0.00000000  0.20225200  0.29774800  1.0
  V  V2  8  0.25000000  0.00000000  0.14684500  1.0
  S  S3  8  0.25000000  0.20956400  0.00000000  1.0
