# generated using pymatgen
data_YS
_symmetry_space_group_name_H-M   I4/mmm
_cell_length_a   3.81750600
_cell_length_b   3.81750600
_cell_length_c   11.01087245
_cell_angle_alpha   99.98274907
_cell_angle_beta   99.98274907
_cell_angle_gamma   89.99999999
_symmetry_Int_Tables_number   139
_chemical_formula_structural   YS
_chemical_formula_sum   'Y2 S2'
_cell_volume   155.56849301
_cell_formula_units_Z   2
loop_
 _symmetry_equiv_pos_site_id
 _symmetry_equiv_pos_as_xyz
  1  'x, y, z'
  2  '-x, -y, -z'
  3  '-y+z, x, z'
  4  'y-z, -x, -z'
  5  '-x+z, -y+z, z'
  6  'x-z, y-z, -z'
  7  'y, -x+z, z'
  8  '-y, x-z, -z'
  9  'x-z, -y, -z'
  10  '-x+z, y, z'
  11  '-y, -x, -z'
  12  'y, x, z'
  13  '-x, y-z, -z'
  14  'x, -y+z, z'
  15  'y-z, x-z, -z'
  16  '-y+z, -x+z, z'
loop_
 _atom_site_type_symbol
 _atom_site_label
 _atom_site_symmetry_multiplicity
 _atom_site_fract_x
 _atom_site_fract_y
 _atom_site_fract_z
 _atom_site_occupancy
  Y  Y0  2  0.30365400  0.30365400  0.60730800  1.0
  S  S1  2  0.17296000  0.17296000  0.34592000  1.0
