# generated using pymatgen
data_TaS2
_symmetry_space_group_name_H-M   Cmcm
_cell_length_a   3.34309198
_cell_length_b   3.34309198
_cell_length_c   23.61405000
_cell_angle_alpha   90.00000000
_cell_angle_beta   90.00000000
_cell_angle_gamma   119.98309821
_symmetry_Int_Tables_number   63
_chemical_formula_structural   TaS2
_chemical_formula_sum   'Ta2 S4'
_cell_volume   228.59761902
_cell_formula_units_Z   2
loop_
 _symmetry_equiv_pos_site_id
 _symmetry_equiv_pos_as_xyz
  1  'x, y, z'
  2  '-x, -y, -z'
  3  '-x, -y, z+1/2'
  4  'x, y, -z+1/2'
  5  'y, x, -z'
  6  '-y, -x, z'
  7  '-y, -x, -z+1/2'
  8  'y, x, z+1/2'
loop_
 _atom_site_type_symbol
 _atom_site_label
 _atom_site_symmetry_multiplicity
 _atom_site_fract_x
 _atom_site_fract_y
 _atom_site_fract_z
 _atom_site_occupancy
  Ta  Ta0  2  0.08216600  0.91783400  0.75000000  1.0
  S  S1  4  0.25120200  0.74879800  0.18385400  1.0
