# generated using pymatgen
data_TaS2
_symmetry_space_group_name_H-M   R-3m
_cell_length_a   3.37291719
_cell_length_b   3.37291719
_cell_length_c   12.94497005
_cell_angle_alpha   82.51428574
_cell_angle_beta   82.51428574
_cell_angle_gamma   60.00001587
_symmetry_Int_Tables_number   166
_chemical_formula_structural   TaS2
_chemical_formula_sum   'Ta2 S4'
_cell_volume   126.08765742
_cell_formula_units_Z   2
loop_
 _symmetry_equiv_pos_site_id
 _symmetry_equiv_pos_as_xyz
  1  'x, y, z'
  2  '-x, -y, -z'
  3  '-x-y-z, x, z'
  4  'x+y+z, -x, -z'
  5  'y, -x-y-z, z'
  6  '-y, x+y+z, -z'
  7  '-x, x+y+z, -z'
  8  'x, -x-y-z, z'
  9  'x+y+z, -y, -z'
  10  '-x-y-z, y, z'
  11  '-y, -x, -z'
  12  'y, x, z'
loop_
 _atom_site_type_symbol
 _atom_site_label
 _atom_site_symmetry_multiplicity
 _atom_site_fract_x
 _atom_site_fract_y
 _atom_site_fract_z
 _atom_site_occupancy
  Ta  Ta0  2  0.08291400  0.08291400  0.75125800  1.0
  S  S1  2  0.21034600  0.21034600  0.36896200  1.0
  S  S2  2  0.37618200  0.37618200  0.87145400  1.0
