# generated using pymatgen
data_WS2
_symmetry_space_group_name_H-M   P-3m1
_cell_length_a   3.19073200
_cell_length_b   3.19073116
_cell_length_c   24.20240200
_cell_angle_alpha   90.00000000
_cell_angle_beta   90.00000000
_cell_angle_gamma   120.00000869
_symmetry_Int_Tables_number   164
_chemical_formula_structural   WS2
_chemical_formula_sum   'W2 S4'
_cell_volume   213.38780958
_cell_formula_units_Z   2
loop_
 _symmetry_equiv_pos_site_id
 _symmetry_equiv_pos_as_xyz
  1  'x, y, z'
  2  '-x, -y, -z'
  3  '-y, x-y, z'
  4  'y, -x+y, -z'
  5  '-x+y, -x, z'
  6  'x-y, x, -z'
  7  'y, x, -z'
  8  '-y, -x, z'
  9  'x-y, -y, -z'
  10  '-x+y, y, z'
  11  '-x, -x+y, -z'
  12  'x, x-y, z'
loop_
 _atom_site_type_symbol
 _atom_site_label
 _atom_site_symmetry_multiplicity
 _atom_site_fract_x
 _atom_site_fract_y
 _atom_site_fract_z
 _atom_site_occupancy
  W  W0  2  0.33333333  0.66666667  0.64670500  1.0
  S  S1  2  0.33333333  0.66666667  0.28830100  1.0
  S  S2  2  0.33333333  0.66666667  0.41829000  1.0
