# generated using pymatgen
data_WS2
_symmetry_space_group_name_H-M   I-42d
_cell_length_a   5.39093800
_cell_length_b   5.39093800
_cell_length_c   6.26827601
_cell_angle_alpha   115.46867701
_cell_angle_beta   115.46867702
_cell_angle_gamma   89.99999999
_symmetry_Int_Tables_number   122
_chemical_formula_structural   WS2
_chemical_formula_sum   'W2 S4'
_cell_volume   144.61240693
_cell_formula_units_Z   2
loop_
 _symmetry_equiv_pos_site_id
 _symmetry_equiv_pos_as_xyz
  1  'x, y, z'
  2  'y-z, -x, -z'
  3  '-x+z, -y+z, z'
  4  '-y, x-z, -z'
  5  '-x+3/4, y-z+1/4, -z+1/2'
  6  '-y+z+3/4, -x+z+1/4, z+1/2'
  7  'x-z+3/4, -y+1/4, -z+1/2'
  8  'y+3/4, x+1/4, z+1/2'
loop_
 _atom_site_type_symbol
 _atom_site_label
 _atom_site_symmetry_multiplicity
 _atom_site_fract_x
 _atom_site_fract_y
 _atom_site_fract_z
 _atom_site_occupancy
  W  W0  2  0.00000000  0.00000000  0.00000000  1.0
  S  S1  4  0.12460500  0.12500000  0.75000000  1.0
