# generated using pymatgen
data_TaS3
_symmetry_space_group_name_H-M   P2_1/m
_cell_length_a   3.36403800
_cell_length_b   10.05729700
_cell_length_c   15.09464979
_cell_angle_alpha   109.23906110
_cell_angle_beta   90.00000000
_cell_angle_gamma   90.00000000
_symmetry_Int_Tables_number   11
_chemical_formula_structural   TaS3
_chemical_formula_sum   'Ta6 S18'
_cell_volume   482.17768010
_cell_formula_units_Z   6
loop_
 _symmetry_equiv_pos_site_id
 _symmetry_equiv_pos_as_xyz
  1  'x, y, z'
  2  '-x, -y, -z'
  3  'x+1/2, -y, -z'
  4  '-x+1/2, y, z'
loop_
 _atom_site_type_symbol
 _atom_site_label
 _atom_site_symmetry_multiplicity
 _atom_site_fract_x
 _atom_site_fract_y
 _atom_site_fract_z
 _atom_site_occupancy
  Ta  Ta0  2  0.25000000  0.31872600  0.20468100  1.0
  Ta  Ta1  2  0.25000000  0.36450800  0.88317700  1.0
  Ta  Ta2  2  0.25000000  0.69276400  0.54039700  1.0
  S  S3  2  0.25000000  0.10954900  0.43246700  1.0
  S  S4  2  0.25000000  0.25188700  0.56844800  1.0
  S  S5  2  0.25000000  0.44086200  0.06481900  1.0
  S  S6  2  0.25000000  0.44863500  0.40694900  1.0
  S  S7  2  0.25000000  0.48167600  0.75353800  1.0
  S  S8  2  0.25000000  0.78757700  0.23051600  1.0
  S  S9  2  0.25000000  0.80126200  0.72073400  1.0
  S  S10  2  0.25000000  0.81260200  0.09668500  1.0
  S  S11  2  0.25000000  0.81326600  0.91115900  1.0
