# generated using pymatgen
data_TaS3
_symmetry_space_group_name_H-M   Aea2
_cell_length_a   4.98100258
_cell_length_b   4.98100258
_cell_length_c   5.34236700
_cell_angle_alpha   90.00000000
_cell_angle_beta   90.00000000
_cell_angle_gamma   97.23496205
_symmetry_Int_Tables_number   41
_chemical_formula_structural   TaS3
_chemical_formula_sum   'Ta2 S6'
_cell_volume   131.49086342
_cell_formula_units_Z   2
loop_
 _symmetry_equiv_pos_site_id
 _symmetry_equiv_pos_as_xyz
  1  'x, y, z'
  2  'y, x, -z'
  3  'x+1/2, y+1/2, -z+1/2'
  4  'y+1/2, x+1/2, z+1/2'
loop_
 _atom_site_type_symbol
 _atom_site_label
 _atom_site_symmetry_multiplicity
 _atom_site_fract_x
 _atom_site_fract_y
 _atom_site_fract_z
 _atom_site_occupancy
  Ta  Ta0  2  0.49745000  0.49745000  0.50000000  1.0
  S  S1  4  0.01833700  0.62163600  0.32465700  1.0
  S  S2  2  0.11867800  0.11867800  0.50000000  1.0
