# generated using pymatgen
data_V3S4
_symmetry_space_group_name_H-M   C2/m
_cell_length_a   3.24801400
_cell_length_b   5.86339963
_cell_length_c   6.51628768
_cell_angle_alpha   114.49366182
_cell_angle_beta   104.43152210
_cell_angle_gamma   90.00000000
_symmetry_Int_Tables_number   12
_chemical_formula_structural   V3S4
_chemical_formula_sum   'V3 S4'
_cell_volume   108.61312578
_cell_formula_units_Z   1
loop_
 _symmetry_equiv_pos_site_id
 _symmetry_equiv_pos_as_xyz
  1  'x, y, z'
  2  '-x, -y, -z'
  3  'x-z, -y, -z'
  4  '-x+z, y, z'
loop_
 _atom_site_type_symbol
 _atom_site_label
 _atom_site_symmetry_multiplicity
 _atom_site_fract_x
 _atom_site_fract_y
 _atom_site_fract_z
 _atom_site_occupancy
  V  V0  2  0.25786900  0.31882700  0.51573800  1.0
  V  V1  1  0.00000000  0.00000000  0.00000000  1.0
  S  S2  2  0.10950000  0.44921300  0.21900000  1.0
  S  S3  2  0.35928300  0.01907600  0.71856600  1.0
