# generated using pymatgen
data_V3S4
_symmetry_space_group_name_H-M   C2/m
_cell_length_a   3.05472200
_cell_length_b   6.29975641
_cell_length_c   6.46476605
_cell_angle_alpha   66.76516078
_cell_angle_beta   76.33413511
_cell_angle_gamma   75.96895349
_symmetry_Int_Tables_number   12
_chemical_formula_structural   V3S4
_chemical_formula_sum   'V3 S4'
_cell_volume   109.51890787
_cell_formula_units_Z   1
loop_
 _symmetry_equiv_pos_site_id
 _symmetry_equiv_pos_as_xyz
  1  'x, y, z'
  2  '-x, -y, -z'
  3  'x+y+z, -y, -z'
  4  '-x-y-z, y, z'
loop_
 _atom_site_type_symbol
 _atom_site_label
 _atom_site_symmetry_multiplicity
 _atom_site_fract_x
 _atom_site_fract_y
 _atom_site_fract_z
 _atom_site_occupancy
  V  V0  2  0.08997900  0.27975900  0.54028300  1.0
  V  V1  1  0.00000000  0.00000000  0.00000000  1.0
  S  S2  2  0.33875500  0.04576500  0.27672500  1.0
  S  S3  2  0.40761400  0.44047800  0.74429400  1.0
