# generated using pymatgen
data_V3S4
_symmetry_space_group_name_H-M   Pnma
_cell_length_a   3.20809400
_cell_length_b   5.79284800
_cell_length_c   5.84974400
_cell_angle_alpha   90.00000000
_cell_angle_beta   90.00000000
_cell_angle_gamma   90.00000000
_symmetry_Int_Tables_number   62
_chemical_formula_structural   V3S4
_chemical_formula_sum   'V3 S4'
_cell_volume   108.71164783
_cell_formula_units_Z   1
loop_
 _symmetry_equiv_pos_site_id
 _symmetry_equiv_pos_as_xyz
  1  'x, y, z'
  2  '-x, -y, -z'
  3  '-x, y+1/2, -z+1/2'
  4  'x, -y+1/2, z+1/2'
  5  '-x+1/2, -y+1/2, z+1/2'
  6  'x+1/2, y+1/2, -z+1/2'
  7  'x+1/2, -y, -z'
  8  '-x+1/2, y, z'
loop_
 _atom_site_type_symbol
 _atom_site_label
 _atom_site_symmetry_multiplicity
 _atom_site_fract_x
 _atom_site_fract_y
 _atom_site_fract_z
 _atom_site_occupancy
  V  V0  4  0.25000000  0.69774400  0.48969600  0.75
  S  S1  4  0.25000000  0.07683700  0.28022400  1.0
