# generated using pymatgen
data_Ti3Sb
_symmetry_space_group_name_H-M   I4/mcm
_cell_length_a   5.25028400
_cell_length_b   7.92632374
_cell_length_c   7.92632374
_cell_angle_alpha   83.70262777
_cell_angle_beta   70.65880547
_cell_angle_gamma   70.65880547
_symmetry_Int_Tables_number   140
_chemical_formula_structural   Ti3Sb
_chemical_formula_sum   'Ti12 Sb4'
_cell_volume   293.67588258
_cell_formula_units_Z   4
loop_
 _symmetry_equiv_pos_site_id
 _symmetry_equiv_pos_as_xyz
  1  'x, y, z'
  2  '-x, -y, -z'
  3  'x+y, z, -y'
  4  '-x-y, -z, y'
  5  'x+y+z, -y, -z'
  6  '-x-y-z, y, z'
  7  'x+z, -z, y'
  8  '-x-z, z, -y'
  9  '-x-y-z+1/2, z, y'
  10  'x+y+z+1/2, -z, -y'
  11  '-x-z+1/2, -y, z'
  12  'x+z+1/2, y, -z'
  13  '-x+1/2, -z, -y'
  14  'x+1/2, z, y'
  15  '-x-y+1/2, y, -z'
  16  'x+y+1/2, -y, z'
loop_
 _atom_site_type_symbol
 _atom_site_label
 _atom_site_symmetry_multiplicity
 _atom_site_fract_x
 _atom_site_fract_y
 _atom_site_fract_z
 _atom_site_occupancy
  Ti  Ti0  8  0.07562100  0.14097100  0.70778700  1.0
  Ti  Ti1  2  0.25000000  0.00000000  0.00000000  1.0
  Ti  Ti2  2  0.25000000  0.50000000  0.50000000  1.0
  Sb  Sb3  4  0.16276400  0.50000000  0.17447200  1.0
