# generated using pymatgen
data_Sb
_symmetry_space_group_name_H-M   P4/mmm
_cell_length_a   3.09491353
_cell_length_b   3.09491353
_cell_length_c   3.12240200
_cell_angle_alpha   89.63978316
_cell_angle_beta   89.63978316
_cell_angle_gamma   89.23411826
_symmetry_Int_Tables_number   123
_chemical_formula_structural   Sb
_chemical_formula_sum   Sb1
_cell_volume   29.90405718
_cell_formula_units_Z   1
loop_
 _symmetry_equiv_pos_site_id
 _symmetry_equiv_pos_as_xyz
  1  'x, y, z'
  2  '-x, -y, -z'
  3  '-y+1/2, x+1/2, z'
  4  'y+1/2, -x+1/2, -z'
  5  '-x, -y, z'
  6  'x, y, -z'
  7  'y+1/2, -x+1/2, z'
  8  '-y+1/2, x+1/2, -z'
  9  'x, -y, -z'
  10  '-x, y, z'
  11  '-y+1/2, -x+1/2, -z'
  12  'y+1/2, x+1/2, z'
  13  '-x, y, -z'
  14  'x, -y, z'
  15  'y+1/2, x+1/2, -z'
  16  '-y+1/2, -x+1/2, z'
loop_
 _atom_site_type_symbol
 _atom_site_label
 _atom_site_symmetry_multiplicity
 _atom_site_fract_x
 _atom_site_fract_y
 _atom_site_fract_z
 _atom_site_occupancy
  Sb  Sb0  1  0.50000000  0.00000000  0.00000000  1.0
