# generated using pymatgen
data_Sb
_symmetry_space_group_name_H-M   P-1
_cell_length_a   6.60981900
_cell_length_b   7.90329113
_cell_length_c   10.44078889
_cell_angle_alpha   69.89451273
_cell_angle_beta   82.51677316
_cell_angle_gamma   70.53038163
_symmetry_Int_Tables_number   2
_chemical_formula_structural   Sb
_chemical_formula_sum   Sb14
_cell_volume   482.81960048
_cell_formula_units_Z   14
loop_
 _symmetry_equiv_pos_site_id
 _symmetry_equiv_pos_as_xyz
  1  'x, y, z'
  2  '-x, -y, -z'
loop_
 _atom_site_type_symbol
 _atom_site_label
 _atom_site_symmetry_multiplicity
 _atom_site_fract_x
 _atom_site_fract_y
 _atom_site_fract_z
 _atom_site_occupancy
  Sb  Sb0  2  0.02320400  0.11431000  0.25867600  1.0
  Sb  Sb1  2  0.11634000  0.48848100  0.69687200  1.0
  Sb  Sb2  2  0.32668800  0.75416100  0.22023800  1.0
  Sb  Sb3  2  0.33453500  0.08010100  0.77198400  1.0
  Sb  Sb4  2  0.33895000  0.33168300  0.23205400  1.0
  Sb  Sb5  1  0.00000000  0.00000000  0.00000000  1.0
  Sb  Sb6  1  0.00000000  0.50000000  0.00000000  1.0
  Sb  Sb7  1  0.50000000  0.00000000  0.50000000  1.0
  Sb  Sb8  1  0.50000000  0.50000000  0.50000000  1.0
