# generated using pymatgen
data_Sb
_symmetry_space_group_name_H-M   P-1
_cell_length_a   6.84618096
_cell_length_b   8.64030865
_cell_length_c   8.87285483
_cell_angle_alpha   113.82751673
_cell_angle_beta   92.13098166
_cell_angle_gamma   102.61884072
_symmetry_Int_Tables_number   2
_chemical_formula_structural   Sb
_chemical_formula_sum   Sb14
_cell_volume   463.87494516
_cell_formula_units_Z   14
loop_
 _symmetry_equiv_pos_site_id
 _symmetry_equiv_pos_as_xyz
  1  'x, y, z'
  2  '-x, -y, -z'
loop_
 _atom_site_type_symbol
 _atom_site_label
 _atom_site_symmetry_multiplicity
 _atom_site_fract_x
 _atom_site_fract_y
 _atom_site_fract_z
 _atom_site_occupancy
  Sb  Sb0  2  0.17307200  0.15006900  0.38663400  1.0
  Sb  Sb1  2  0.18494500  0.19069400  0.74578000  1.0
  Sb  Sb2  2  0.22572100  0.74859500  0.61388500  1.0
  Sb  Sb3  2  0.30822700  0.35193700  0.13174600  1.0
  Sb  Sb4  2  0.34021500  0.80904300  0.95781200  1.0
  Sb  Sb5  1  0.00000000  0.00000000  0.00000000  1.0
  Sb  Sb6  1  0.00000000  0.50000000  0.00000000  1.0
  Sb  Sb7  1  0.50000000  0.00000000  0.50000000  1.0
  Sb  Sb8  1  0.50000000  0.50000000  0.50000000  1.0
