# generated using pymatgen
data_Sb
_symmetry_space_group_name_H-M   P-1
_cell_length_a   6.71448100
_cell_length_b   8.75801612
_cell_length_c   9.09884083
_cell_angle_alpha   73.09092881
_cell_angle_beta   71.53433004
_cell_angle_gamma   89.26270509
_symmetry_Int_Tables_number   2
_chemical_formula_structural   Sb
_chemical_formula_sum   Sb14
_cell_volume   483.71737134
_cell_formula_units_Z   14
loop_
 _symmetry_equiv_pos_site_id
 _symmetry_equiv_pos_as_xyz
  1  'x, y, z'
  2  '-x, -y, -z'
loop_
 _atom_site_type_symbol
 _atom_site_label
 _atom_site_symmetry_multiplicity
 _atom_site_fract_x
 _atom_site_fract_y
 _atom_site_fract_z
 _atom_site_occupancy
  Sb  Sb0  2  0.03087300  0.62261500  0.11912900  1.0
  Sb  Sb1  2  0.09747400  0.79482900  0.76395900  1.0
  Sb  Sb2  2  0.26773800  0.26825600  0.33585500  1.0
  Sb  Sb3  2  0.38042300  0.24492600  0.87358900  1.0
  Sb  Sb4  2  0.42346800  0.66148500  0.47481900  1.0
  Sb  Sb5  1  0.00000000  0.00000000  0.00000000  1.0
  Sb  Sb6  1  0.00000000  0.50000000  0.50000000  1.0
  Sb  Sb7  1  0.50000000  0.00000000  0.50000000  1.0
  Sb  Sb8  1  0.50000000  0.50000000  0.00000000  1.0
