# generated using pymatgen
data_SnSb
_symmetry_space_group_name_H-M   Cmmm
_cell_length_a   3.20038908
_cell_length_b   3.20038935
_cell_length_c   6.24415004
_cell_angle_alpha   89.80234744
_cell_angle_beta   89.80234545
_cell_angle_gamma   114.70466685
_symmetry_Int_Tables_number   65
_chemical_formula_structural   SnSb
_chemical_formula_sum   'Sn1 Sb1'
_cell_volume   58.10086736
_cell_formula_units_Z   1
loop_
 _symmetry_equiv_pos_site_id
 _symmetry_equiv_pos_as_xyz
  1  'x, y, z'
  2  '-x, -y, -z'
  3  '-x, -y, z'
  4  'x, y, -z'
  5  'y, x, -z'
  6  '-y, -x, z'
  7  '-y, -x, -z'
  8  'y, x, z'
loop_
 _atom_site_type_symbol
 _atom_site_label
 _atom_site_symmetry_multiplicity
 _atom_site_fract_x
 _atom_site_fract_y
 _atom_site_fract_z
 _atom_site_occupancy
  Sn  Sn0  1  0.00000000  0.00000000  0.00000000  1.0
  Sb  Sb1  1  0.00000000  0.00000000  0.50000000  1.0
