# generated using pymatgen
data_TlSbTe2
_symmetry_space_group_name_H-M   C2/m
_cell_length_a   5.15373800
_cell_length_b   5.70704812
_cell_length_c   6.59907542
_cell_angle_alpha   67.75229091
_cell_angle_beta   67.01504528
_cell_angle_gamma   63.15849787
_symmetry_Int_Tables_number   12
_chemical_formula_structural   TlSbTe2
_chemical_formula_sum   'Tl1 Sb1 Te2'
_cell_volume   154.52388904
_cell_formula_units_Z   1
loop_
 _symmetry_equiv_pos_site_id
 _symmetry_equiv_pos_as_xyz
  1  'x, y, z'
  2  '-x, -y, -z'
  3  'x+y+z, -y, -z'
  4  '-x-y-z, y, z'
loop_
 _atom_site_type_symbol
 _atom_site_label
 _atom_site_symmetry_multiplicity
 _atom_site_fract_x
 _atom_site_fract_y
 _atom_site_fract_z
 _atom_site_occupancy
  Tl  Tl0  1  0.00000000  0.00000000  0.00000000  1.0
  Sb  Sb1  1  0.00000000  0.50000000  0.50000000  1.0
  Te  Te2  2  0.35573700  0.86291900  0.42560700  1.0
