# generated using pymatgen
data_Sb2Te3
_symmetry_space_group_name_H-M   Immm
_cell_length_a   4.55277200
_cell_length_b   6.23804000
_cell_length_c   11.98024529
_cell_angle_alpha   105.09064833
_cell_angle_beta   100.95346323
_cell_angle_gamma   89.99999999
_symmetry_Int_Tables_number   71
_chemical_formula_structural   Sb2Te3
_chemical_formula_sum   'Sb4 Te6'
_cell_volume   322.08585662
_cell_formula_units_Z   2
loop_
 _symmetry_equiv_pos_site_id
 _symmetry_equiv_pos_as_xyz
  1  'x, y, z'
  2  '-x, -y, -z'
  3  '-x+z, -y+z, z'
  4  'x-z, y-z, -z'
  5  'x-z, -y, -z'
  6  '-x+z, y, z'
  7  '-x, y-z, -z'
  8  'x, -y+z, z'
loop_
 _atom_site_type_symbol
 _atom_site_label
 _atom_site_symmetry_multiplicity
 _atom_site_fract_x
 _atom_site_fract_y
 _atom_site_fract_z
 _atom_site_occupancy
  Sb  Sb0  2  0.09964000  0.59964000  0.19928000  1.0
  Sb  Sb1  2  0.29924900  0.79924900  0.59849800  1.0
  Te  Te2  2  0.10975000  0.10975000  0.21950000  1.0
  Te  Te3  2  0.30303600  0.30303600  0.60607200  1.0
  Te  Te4  1  0.50000000  0.00000000  0.00000000  1.0
  Te  Te5  1  0.50000000  0.50000000  0.00000000  1.0
