# generated using pymatgen
data_Sb2Te3
_symmetry_space_group_name_H-M   C2/m
_cell_length_a   4.30527600
_cell_length_b   8.32910716
_cell_length_c   9.88988087
_cell_angle_alpha   94.93732547
_cell_angle_beta   90.00000000
_cell_angle_gamma   104.97796987
_symmetry_Int_Tables_number   12
_chemical_formula_structural   Sb2Te3
_chemical_formula_sum   'Sb4 Te6'
_cell_volume   341.23101899
_cell_formula_units_Z   2
loop_
 _symmetry_equiv_pos_site_id
 _symmetry_equiv_pos_as_xyz
  1  'x, y, z'
  2  '-x, -y, -z'
  3  'x-y, -y, -z'
  4  '-x+y, y, z'
loop_
 _atom_site_type_symbol
 _atom_site_label
 _atom_site_symmetry_multiplicity
 _atom_site_fract_x
 _atom_site_fract_y
 _atom_site_fract_z
 _atom_site_occupancy
  Sb  Sb0  2  0.02579300  0.05158600  0.79088900  1.0
  Sb  Sb1  2  0.23616400  0.47232800  0.19389600  1.0
  Te  Te2  2  0.16809100  0.33618200  0.63231500  1.0
  Te  Te3  2  0.35782300  0.71564600  0.99722600  1.0
  Te  Te4  2  0.43328000  0.86656000  0.64323900  1.0
