# generated using pymatgen
data_YbSb2
_symmetry_space_group_name_H-M   Cmcm
_cell_length_a   4.34302000
_cell_length_b   4.59649200
_cell_length_c   8.74575278
_cell_angle_alpha   105.23533346
_cell_angle_beta   90.00000000
_cell_angle_gamma   90.00000000
_symmetry_Int_Tables_number   63
_chemical_formula_structural   YbSb2
_chemical_formula_sum   'Yb2 Sb4'
_cell_volume   168.45248292
_cell_formula_units_Z   2
loop_
 _symmetry_equiv_pos_site_id
 _symmetry_equiv_pos_as_xyz
  1  'x, y, z'
  2  '-x, -y, -z'
  3  'x+1/2, -y, -z'
  4  '-x+1/2, y, z'
  5  '-x, y-z, -z'
  6  'x, -y+z, z'
  7  '-x+1/2, -y+z, z'
  8  'x+1/2, y-z, -z'
loop_
 _atom_site_type_symbol
 _atom_site_label
 _atom_site_symmetry_multiplicity
 _atom_site_fract_x
 _atom_site_fract_y
 _atom_site_fract_z
 _atom_site_occupancy
  Yb  Yb0  2  0.25000000  0.10222400  0.20444800  1.0
  Sb  Sb1  2  0.25000000  0.43828000  0.87656000  1.0
  Sb  Sb2  2  0.25000000  0.74329100  0.48658200  1.0
