# generated using pymatgen
data_Zr5Sb3
_symmetry_space_group_name_H-M   Pnma
_cell_length_a   7.61487400
_cell_length_b   8.88916700
_cell_length_c   10.86696900
_cell_angle_alpha   90.00000000
_cell_angle_beta   90.00000000
_cell_angle_gamma   90.00000000
_symmetry_Int_Tables_number   62
_chemical_formula_structural   Zr5Sb3
_chemical_formula_sum   'Zr20 Sb12'
_cell_volume   735.58390006
_cell_formula_units_Z   4
loop_
 _symmetry_equiv_pos_site_id
 _symmetry_equiv_pos_as_xyz
  1  'x, y, z'
  2  '-x, -y, -z'
  3  'x+1/2, -y, -z+1/2'
  4  '-x+1/2, y, z+1/2'
  5  '-x+1/2, -y+1/2, z+1/2'
  6  'x+1/2, y+1/2, -z+1/2'
  7  '-x, y+1/2, -z'
  8  'x, -y+1/2, z'
loop_
 _atom_site_type_symbol
 _atom_site_label
 _atom_site_symmetry_multiplicity
 _atom_site_fract_x
 _atom_site_fract_y
 _atom_site_fract_z
 _atom_site_occupancy
  Zr  Zr0  8  0.19904600  0.05662900  0.44734200  1.0
  Zr  Zr1  4  0.02594100  0.75000000  0.00317400  1.0
  Zr  Zr2  4  0.17241900  0.25000000  0.71285900  1.0
  Zr  Zr3  4  0.17931300  0.75000000  0.73195000  1.0
  Sb  Sb4  8  0.06649000  0.00761100  0.17818500  1.0
  Sb  Sb5  4  0.09055100  0.75000000  0.47269200  1.0
