# generated using pymatgen
data_SrSn3Sb4
_symmetry_space_group_name_H-M   Pnma
_cell_length_a   4.44551700
_cell_length_b   10.17618000
_cell_length_c   23.28424200
_cell_angle_alpha   90.00000000
_cell_angle_beta   90.00000000
_cell_angle_gamma   90.00000000
_symmetry_Int_Tables_number   62
_chemical_formula_structural   SrSn3Sb4
_chemical_formula_sum   'Sr4 Sn12 Sb16'
_cell_volume   1053.34141520
_cell_formula_units_Z   4
loop_
 _symmetry_equiv_pos_site_id
 _symmetry_equiv_pos_as_xyz
  1  'x, y, z'
  2  '-x, -y, -z'
  3  '-x, -y+1/2, z+1/2'
  4  'x, y+1/2, -z+1/2'
  5  '-x+1/2, y+1/2, -z+1/2'
  6  'x+1/2, -y+1/2, z+1/2'
  7  'x+1/2, -y, -z'
  8  '-x+1/2, y, z'
loop_
 _atom_site_type_symbol
 _atom_site_label
 _atom_site_symmetry_multiplicity
 _atom_site_fract_x
 _atom_site_fract_y
 _atom_site_fract_z
 _atom_site_occupancy
  Sr  Sr0  4  0.25000000  0.43801700  0.62968400  1.0
  Sn  Sn1  4  0.25000000  0.04396900  0.35046300  1.0
  Sn  Sn2  4  0.25000000  0.14450400  0.51051900  1.0
  Sn  Sn3  4  0.25000000  0.22311900  0.75117200  1.0
  Sb  Sb4  4  0.25000000  0.28628300  0.87697100  1.0
  Sb  Sb5  4  0.25000000  0.29733200  0.09185700  1.0
  Sb  Sb6  4  0.25000000  0.42754700  0.47119300  1.0
  Sb  Sb7  4  0.25000000  0.46763600  0.26817000  1.0
