# generated using pymatgen
data_Se
_symmetry_space_group_name_H-M   R-3
_cell_length_a   5.31341655
_cell_length_b   6.75373502
_cell_length_c   6.75373502
_cell_angle_alpha   113.38082801
_cell_angle_beta   105.20336136
_cell_angle_gamma   105.20336136
_symmetry_Int_Tables_number   148
_chemical_formula_structural   Se
_chemical_formula_sum   Se6
_cell_volume   195.45560949
_cell_formula_units_Z   6
loop_
 _symmetry_equiv_pos_site_id
 _symmetry_equiv_pos_as_xyz
  1  'x, y, z'
  2  '-x, -y, -z'
  3  'x-z, -z, y-z'
  4  '-x+z, z, -y+z'
  5  'x-y, -y+z, -y'
  6  '-x+y, y-z, y'
loop_
 _atom_site_type_symbol
 _atom_site_label
 _atom_site_symmetry_multiplicity
 _atom_site_fract_x
 _atom_site_fract_y
 _atom_site_fract_z
 _atom_site_occupancy
  Se  Se0  6  0.10485200  0.24240800  0.37399200  1.0
