# generated using pymatgen
data_Se
_symmetry_space_group_name_H-M   P2_1/c
_cell_length_a   10.15386300
_cell_length_b   15.30902400
_cell_length_c   15.73918172
_cell_angle_alpha   90.00000000
_cell_angle_beta   94.04286915
_cell_angle_gamma   90.00000000
_symmetry_Int_Tables_number   14
_chemical_formula_structural   Se
_chemical_formula_sum   Se64
_cell_volume   2440.50048595
_cell_formula_units_Z   64
loop_
 _symmetry_equiv_pos_site_id
 _symmetry_equiv_pos_as_xyz
  1  'x, y, z'
  2  '-x, -y, -z'
  3  '-x+1/2, y+1/2, -z'
  4  'x+1/2, -y+1/2, z'
loop_
 _atom_site_type_symbol
 _atom_site_label
 _atom_site_symmetry_multiplicity
 _atom_site_fract_x
 _atom_site_fract_y
 _atom_site_fract_z
 _atom_site_occupancy
  Se  Se0  4  0.00024800  0.68534500  0.35552400  1.0
  Se  Se1  4  0.02109200  0.19053700  0.19315200  1.0
  Se  Se2  4  0.04808400  0.85756300  0.18538400  1.0
  Se  Se3  4  0.06295000  0.41057800  0.30414500  1.0
  Se  Se4  4  0.10287100  0.85449900  0.52586200  1.0
  Se  Se5  4  0.11101900  0.71517700  0.23135000  1.0
  Se  Se6  4  0.12086900  0.28595100  0.98471200  1.0
  Se  Se7  4  0.13537200  0.26371200  0.30856300  1.0
  Se  Se8  4  0.15048000  0.71394800  0.47361000  1.0
  Se  Se9  4  0.15236100  0.50971300  0.09324900  1.0
  Se  Se10  4  0.15773300  0.02482200  0.35378800  1.0
  Se  Se11  4  0.17157900  0.17537200  0.08641500  1.0
  Se  Se12  4  0.22277100  0.95257400  0.23045200  1.0
  Se  Se13  4  0.22549900  0.49185700  0.23815200  1.0
  Se  Se14  4  0.23546000  0.90604100  0.98657200  1.0
  Se  Se15  4  0.24163900  0.45378000  0.52435600  1.0
