# generated using pymatgen
data_Se
_symmetry_space_group_name_H-M   P2_1/c
_cell_length_a   8.48587100
_cell_length_b   10.23632400
_cell_length_c   13.64031129
_cell_angle_alpha   95.18938546
_cell_angle_beta   90.00000000
_cell_angle_gamma   90.00000000
_symmetry_Int_Tables_number   14
_chemical_formula_structural   Se
_chemical_formula_sum   Se32
_cell_volume   1179.99719309
_cell_formula_units_Z   32
loop_
 _symmetry_equiv_pos_site_id
 _symmetry_equiv_pos_as_xyz
  1  'x, y, z'
  2  '-x, -y, -z'
  3  'x+1/2, -y, -z+1/2'
  4  '-x+1/2, y, z+1/2'
loop_
 _atom_site_type_symbol
 _atom_site_label
 _atom_site_symmetry_multiplicity
 _atom_site_fract_x
 _atom_site_fract_y
 _atom_site_fract_z
 _atom_site_occupancy
  Se  Se0  4  0.02022000  0.66313700  0.79435700  1.0
  Se  Se1  4  0.08527000  0.06278600  0.85508600  1.0
  Se  Se2  4  0.09769200  0.76739000  0.16345900  1.0
  Se  Se3  4  0.16678700  0.15300000  0.58646800  1.0
  Se  Se4  4  0.17650000  0.16133300  0.41329900  1.0
  Se  Se5  4  0.17957900  0.57612100  0.91465000  1.0
  Se  Se6  4  0.23401200  0.75345100  0.52416300  1.0
  Se  Se7  4  0.24726500  0.35850400  0.15994000  1.0
