# generated using pymatgen
data_Se
_symmetry_space_group_name_H-M   P2_1/c
_cell_length_a   9.45037300
_cell_length_b   10.27310400
_cell_length_c   12.34138505
_cell_angle_alpha   90.00000000
_cell_angle_beta   90.82908568
_cell_angle_gamma   90.00000000
_symmetry_Int_Tables_number   14
_chemical_formula_structural   Se
_chemical_formula_sum   Se32
_cell_volume   1198.03379071
_cell_formula_units_Z   32
loop_
 _symmetry_equiv_pos_site_id
 _symmetry_equiv_pos_as_xyz
  1  'x, y, z'
  2  '-x, -y, -z'
  3  '-x+1/2, y+1/2, -z+1/2'
  4  'x+1/2, -y+1/2, z+1/2'
loop_
 _atom_site_type_symbol
 _atom_site_label
 _atom_site_symmetry_multiplicity
 _atom_site_fract_x
 _atom_site_fract_y
 _atom_site_fract_z
 _atom_site_occupancy
  Se  Se0  4  0.07995300  0.53805100  0.76970200  1.0
  Se  Se1  4  0.08055500  0.69233500  0.48636800  1.0
  Se  Se2  4  0.08098300  0.84575900  0.14174300  1.0
  Se  Se3  4  0.13161800  0.40583800  0.14258800  1.0
  Se  Se4  4  0.13756600  0.20094000  0.54623100  1.0
  Se  Se5  4  0.14991400  0.72304000  0.66897600  1.0
  Se  Se6  4  0.18262600  0.86082600  0.96850400  1.0
  Se  Se7  4  0.18273200  0.00475100  0.25742100  1.0
