# generated using pymatgen
data_Se
_symmetry_space_group_name_H-M   P2_12_12
_cell_length_a   2.74444971
_cell_length_b   4.73133786
_cell_length_c   8.05606200
_cell_angle_alpha   90.00000000
_cell_angle_beta   90.00000000
_cell_angle_gamma   90.06283639
_symmetry_Int_Tables_number   18
_chemical_formula_structural   Se
_chemical_formula_sum   Se4
_cell_volume   104.60724815
_cell_formula_units_Z   4
loop_
 _symmetry_equiv_pos_site_id
 _symmetry_equiv_pos_as_xyz
  1  'x, y, z'
  2  'x, -y+447/893, -z+23/100'
  3  '-x+999/1000, y+1/2, -z+73/100'
  4  '-x+999/1000, -y+1/1000, z+1/2'
loop_
 _atom_site_type_symbol
 _atom_site_label
 _atom_site_symmetry_multiplicity
 _atom_site_fract_x
 _atom_site_fract_y
 _atom_site_fract_z
 _atom_site_occupancy
  Se  Se0  4  0.23723500  0.06978891  0.01494200  1.0
