# generated using pymatgen
data_TaSe2
_symmetry_space_group_name_H-M   Fmm2
_cell_length_a   3.47424200
_cell_length_b   3.47549016
_cell_length_c   12.35322555
_cell_angle_alpha   85.96963338
_cell_angle_beta   81.91622667
_cell_angle_gamma   60.01187926
_symmetry_Int_Tables_number   42
_chemical_formula_structural   TaSe2
_chemical_formula_sum   'Ta1 Se2'
_cell_volume   127.90931289
_cell_formula_units_Z   1
loop_
 _symmetry_equiv_pos_site_id
 _symmetry_equiv_pos_as_xyz
  1  'x, y, z'
  2  '-x-y, y, -z'
  3  '-x-y-z, y, z'
  4  'x+z, y, -z'
loop_
 _atom_site_type_symbol
 _atom_site_label
 _atom_site_symmetry_multiplicity
 _atom_site_fract_x
 _atom_site_fract_y
 _atom_site_fract_z
 _atom_site_occupancy
  Ta  Ta0  1  0.08153400  0.83693200  0.00000000  1.0
  Se  Se1  2  0.67965200  0.50353400  0.13716200  1.0
