# generated using pymatgen
data_TaSe2
_symmetry_space_group_name_H-M   P-1
_cell_length_a   7.80266700
_cell_length_b   8.22953131
_cell_length_c   9.76143884
_cell_angle_alpha   96.08947047
_cell_angle_beta   97.77653250
_cell_angle_gamma   108.66293209
_symmetry_Int_Tables_number   2
_chemical_formula_structural   TaSe2
_chemical_formula_sum   'Ta5 Se10'
_cell_volume   580.88618278
_cell_formula_units_Z   5
loop_
 _symmetry_equiv_pos_site_id
 _symmetry_equiv_pos_as_xyz
  1  'x, y, z'
  2  '-x, -y, -z'
loop_
 _atom_site_type_symbol
 _atom_site_label
 _atom_site_symmetry_multiplicity
 _atom_site_fract_x
 _atom_site_fract_y
 _atom_site_fract_z
 _atom_site_occupancy
  Ta  Ta0  2  0.03541300  0.18851100  0.24911900  1.0
  Ta  Ta1  2  0.34855300  0.86217100  0.86763200  1.0
  Ta  Ta2  1  0.00000000  0.00000000  0.00000000  1.0
  Se  Se3  2  0.04141300  0.89876700  0.24509900  1.0
  Se  Se4  2  0.15937800  0.71967500  0.60799200  1.0
  Se  Se5  2  0.22744200  0.32668200  0.08086200  1.0
  Se  Se6  2  0.40552100  0.85665500  0.12453000  1.0
  Se  Se7  2  0.46710300  0.64497200  0.76093200  1.0
