# generated using pymatgen
data_TaSe2
_symmetry_space_group_name_H-M   P-1
_cell_length_a   9.18010400
_cell_length_b   9.80527270
_cell_length_c   11.50154172
_cell_angle_alpha   72.27838876
_cell_angle_beta   74.41429279
_cell_angle_gamma   83.40173590
_symmetry_Int_Tables_number   2
_chemical_formula_structural   TaSe2
_chemical_formula_sum   'Ta13 Se26'
_cell_volume   949.28425425
_cell_formula_units_Z   13
loop_
 _symmetry_equiv_pos_site_id
 _symmetry_equiv_pos_as_xyz
  1  'x, y, z'
  2  '-x, -y, -z'
loop_
 _atom_site_type_symbol
 _atom_site_label
 _atom_site_symmetry_multiplicity
 _atom_site_fract_x
 _atom_site_fract_y
 _atom_site_fract_z
 _atom_site_occupancy
  Ta  Ta0  2  0.06882100  0.21402400  0.71703500  1.0
  Ta  Ta1  2  0.15157200  0.48746800  0.36032500  1.0
  Ta  Ta2  2  0.21459200  0.71667300  0.06919800  1.0
  Ta  Ta3  2  0.28278000  0.93009000  0.78578200  1.0
  Ta  Ta4  2  0.35906100  0.15131900  0.48717900  1.0
  Ta  Ta5  2  0.48808500  0.36056800  0.15169900  1.0
  Ta  Ta6  1  0.00000000  0.00000000  0.00000000  1.0
  Se  Se7  2  0.00272600  0.94939400  0.78457100  1.0
  Se  Se8  2  0.06964200  0.27475900  0.91795400  1.0
  Se  Se9  2  0.09042300  0.20135900  0.47874100  1.0
  Se  Se10  2  0.13197800  0.49215100  0.60072400  1.0
  Se  Se11  2  0.18544700  0.42726900  0.16002200  1.0
  Se  Se12  2  0.21896600  0.74743000  0.28989200  1.0
  Se  Se13  2  0.23271900  0.65171100  0.85818900  1.0
  Se  Se14  2  0.29452500  0.97717300  0.99072400  1.0
  Se  Se15  2  0.33223400  0.88434300  0.55807000  1.0
  Se  Se16  2  0.36610800  0.19904700  0.68927400  1.0
  Se  Se17  2  0.41088100  0.10880000  0.25281600  1.0
  Se  Se18  2  0.43754100  0.42041700  0.36955700  1.0
  Se  Se19  2  0.49066200  0.34846700  0.93569500  1.0
