# generated using pymatgen
data_TaSe2
_symmetry_space_group_name_H-M   R3m
_cell_length_a   3.49341483
_cell_length_b   3.49341483
_cell_length_c   13.75292823
_cell_angle_alpha   82.70337314
_cell_angle_beta   82.70337314
_cell_angle_gamma   59.99998436
_symmetry_Int_Tables_number   160
_chemical_formula_structural   TaSe2
_chemical_formula_sum   'Ta2 Se4'
_cell_volume   143.78210060
_cell_formula_units_Z   2
loop_
 _symmetry_equiv_pos_site_id
 _symmetry_equiv_pos_as_xyz
  1  'x, y, z'
  2  '-x-y-z, x, z'
  3  'y, -x-y-z, z'
  4  'x, -x-y-z, z'
  5  '-x-y-z, y, z'
  6  'y, x, z'
loop_
 _atom_site_type_symbol
 _atom_site_label
 _atom_site_symmetry_multiplicity
 _atom_site_fract_x
 _atom_site_fract_y
 _atom_site_fract_z
 _atom_site_occupancy
  Ta  Ta0  1  0.08312700  0.08312700  0.75061900  1.0
  Ta  Ta1  1  0.91683000  0.91683000  0.24951000  1.0
  Se  Se2  1  0.20949800  0.20949800  0.37150600  1.0
  Se  Se3  1  0.37561700  0.37561700  0.87314900  1.0
  Se  Se4  1  0.45737400  0.45737400  0.62787800  1.0
  Se  Se5  1  0.62415400  0.62415400  0.12753800  1.0
