# generated using pymatgen
data_TaSe3
_symmetry_space_group_name_H-M   P2_1/m
_cell_length_a   3.51916100
_cell_length_b   10.37456500
_cell_length_c   10.89654300
_cell_angle_alpha   109.31042810
_cell_angle_beta   90.00000000
_cell_angle_gamma   90.00000000
_symmetry_Int_Tables_number   11
_chemical_formula_structural   TaSe3
_chemical_formula_sum   'Ta4 Se12'
_cell_volume   375.44860172
_cell_formula_units_Z   4
loop_
 _symmetry_equiv_pos_site_id
 _symmetry_equiv_pos_as_xyz
  1  'x, y, z'
  2  '-x, -y, -z'
  3  'x+1/2, -y, -z'
  4  '-x+1/2, y, z'
loop_
 _atom_site_type_symbol
 _atom_site_label
 _atom_site_symmetry_multiplicity
 _atom_site_fract_x
 _atom_site_fract_y
 _atom_site_fract_z
 _atom_site_occupancy
  Ta  Ta0  2  0.25000000  0.04196500  0.33300700  1.0
  Ta  Ta1  2  0.25000000  0.37151500  0.80975500  1.0
  Se  Se2  2  0.25000000  0.11831000  0.60240300  1.0
  Se  Se3  2  0.25000000  0.43040600  0.08070100  1.0
  Se  Se4  2  0.25000000  0.58855600  0.35582600  1.0
  Se  Se5  2  0.25000000  0.75313800  0.60556500  1.0
  Se  Se6  2  0.25000000  0.79541100  0.13246000  1.0
  Se  Se7  2  0.25000000  0.93174600  0.83668200  1.0
