# generated using pymatgen
data_TaSe3
_symmetry_space_group_name_H-M   P2_1/m
_cell_length_a   3.52123800
_cell_length_b   10.48923400
_cell_length_c   15.81748251
_cell_angle_alpha   109.26568948
_cell_angle_beta   90.00000000
_cell_angle_gamma   90.00000000
_symmetry_Int_Tables_number   11
_chemical_formula_structural   TaSe3
_chemical_formula_sum   'Ta6 Se18'
_cell_volume   551.50304587
_cell_formula_units_Z   6
loop_
 _symmetry_equiv_pos_site_id
 _symmetry_equiv_pos_as_xyz
  1  'x, y, z'
  2  '-x, -y, -z'
  3  'x+1/2, -y, -z'
  4  '-x+1/2, y, z'
loop_
 _atom_site_type_symbol
 _atom_site_label
 _atom_site_symmetry_multiplicity
 _atom_site_fract_x
 _atom_site_fract_y
 _atom_site_fract_z
 _atom_site_occupancy
  Ta  Ta0  2  0.25000000  0.11693700  0.79259800  1.0
  Ta  Ta1  2  0.25000000  0.15973200  0.46046100  1.0
  Ta  Ta2  2  0.25000000  0.46819700  0.11628700  1.0
  Se  Se3  2  0.25000000  0.03903500  0.59354200  1.0
  Se  Se4  2  0.25000000  0.08306800  0.27621700  1.0
  Se  Se5  2  0.25000000  0.37850000  0.93224300  1.0
  Se  Se6  2  0.25000000  0.55593100  0.76458600  1.0
  Se  Se7  2  0.25000000  0.67344400  0.57558100  1.0
  Se  Se8  2  0.25000000  0.68357600  0.42430700  1.0
  Se  Se9  2  0.25000000  0.72220200  0.24803700  1.0
  Se  Se10  2  0.25000000  0.73571800  0.91858100  1.0
  Se  Se11  2  0.25000000  0.90989200  0.08906400  1.0
