# generated using pymatgen
data_Y3Se4
_symmetry_space_group_name_H-M   C2/m
_cell_length_a   8.13818962
_cell_length_b   8.13818962
_cell_length_c   13.98974453
_cell_angle_alpha   73.59336044
_cell_angle_beta   73.59336044
_cell_angle_gamma   60.47727634
_symmetry_Int_Tables_number   12
_chemical_formula_structural   Y3Se4
_chemical_formula_sum   'Y12 Se16'
_cell_volume   761.93452263
_cell_formula_units_Z   4
loop_
 _symmetry_equiv_pos_site_id
 _symmetry_equiv_pos_as_xyz
  1  'x, y, z'
  2  '-x, -y, -z'
  3  '-y, -x, -z'
  4  'y, x, z'
loop_
 _atom_site_type_symbol
 _atom_site_label
 _atom_site_symmetry_multiplicity
 _atom_site_fract_x
 _atom_site_fract_y
 _atom_site_fract_z
 _atom_site_occupancy
  Y  Y0  4  0.25731800  0.73939300  0.25418200  1.0
  Y  Y1  2  0.00000000  0.50000000  0.00000000  1.0
  Y  Y2  2  0.00000000  0.50000000  0.50000000  1.0
  Y  Y3  2  0.25495000  0.25495000  0.74558600  1.0
  Y  Y4  1  0.00000000  0.00000000  0.00000000  1.0
  Y  Y5  1  0.00000000  0.00000000  0.50000000  1.0
  Se  Se6  4  0.11753100  0.63010600  0.12548700  1.0
  Se  Se7  4  0.12273600  0.62759700  0.62553300  1.0
  Se  Se8  2  0.12455400  0.12455400  0.62565500  1.0
  Se  Se9  2  0.12515400  0.12515400  0.12776400  1.0
  Se  Se10  2  0.37247400  0.37247400  0.37552300  1.0
  Se  Se11  2  0.37714100  0.37714100  0.87765100  1.0
