# generated using pymatgen
data_Zr4.4Si3.6
_symmetry_space_group_name_H-M   Pnma
_cell_length_a   3.80333100
_cell_length_b   5.32811800
_cell_length_c   7.03014600
_cell_angle_alpha   90.00000000
_cell_angle_beta   90.00000000
_cell_angle_gamma   90.00000000
_symmetry_Int_Tables_number   62
_chemical_formula_structural   Zr4.4Si3.6
_chemical_formula_sum   'Zr4.4 Si3.6'
_cell_volume   142.46307105
_cell_formula_units_Z   1
loop_
 _symmetry_equiv_pos_site_id
 _symmetry_equiv_pos_as_xyz
  1  'x, y, z'
  2  '-x, -y, -z'
  3  '-x, y+1/2, -z+1/2'
  4  'x, -y+1/2, z+1/2'
  5  '-x+1/2, -y+1/2, z+1/2'
  6  'x+1/2, y+1/2, -z+1/2'
  7  'x+1/2, -y, -z'
  8  '-x+1/2, y, z'
loop_
 _atom_site_type_symbol
 _atom_site_label
 _atom_site_symmetry_multiplicity
 _atom_site_fract_x
 _atom_site_fract_y
 _atom_site_fract_z
 _atom_site_occupancy
  Zr  Zr0  4  0.25000000  0.12469500  0.17558300  1.0
  Si  Si1  4  0.25000000  0.63821400  0.04334900  0.9
  Zr  Zr2  4  0.25000000  0.63821400  0.04334900  0.1
