# generated using pymatgen
data_Si
_symmetry_space_group_name_H-M   P1
_cell_length_a   12.40890494
_cell_length_b   12.61042510
_cell_length_c   12.68144231
_cell_angle_alpha   79.42310119
_cell_angle_beta   81.03513706
_cell_angle_gamma   82.22998572
_symmetry_Int_Tables_number   1
_chemical_formula_structural   Si
_chemical_formula_sum   Si100
_cell_volume   1915.22057302
_cell_formula_units_Z   100
loop_
 _symmetry_equiv_pos_site_id
 _symmetry_equiv_pos_as_xyz
  1  'x, y, z'
loop_
 _atom_site_type_symbol
 _atom_site_label
 _atom_site_symmetry_multiplicity
 _atom_site_fract_x
 _atom_site_fract_y
 _atom_site_fract_z
 _atom_site_occupancy
  Si  Si0  1  0.01220968  0.24638008  0.31721174  1.0
  Si  Si1  1  0.03936760  0.99694500  0.83424073  1.0
  Si  Si2  1  0.04117197  0.17776270  0.50119362  1.0
  Si  Si3  1  0.04575710  0.10296415  0.06924231  1.0
  Si  Si4  1  0.04827158  0.68478712  0.25133908  1.0
  Si  Si5  1  0.05626342  0.33448991  0.81348807  1.0
  Si  Si6  1  0.06142633  0.32192176  0.00295686  1.0
  Si  Si7  1  0.07220518  0.98531295  0.51731581  1.0
  Si  Si8  1  0.07250490  0.45231925  0.43040674  1.0
  Si  Si9  1  0.08011719  0.74766361  0.79005193  1.0
  Si  Si10  1  0.08278593  0.08968167  0.24739895  1.0
  Si  Si11  1  0.09281165  0.40787321  0.25574056  1.0
  Si  Si12  1  0.10359707  0.74615719  0.06745627  1.0
  Si  Si13  1  0.10741590  0.51012954  0.92897358  1.0
  Si  Si14  1  0.11509440  0.93577970  0.00856637  1.0
  Si  Si15  1  0.11692630  0.65829715  0.56162128  1.0
  Si  Si16  1  0.14780272  0.56478757  0.73905689  1.0
  Si  Si17  1  0.16443297  0.60418059  0.38918135  1.0
  Si  Si18  1  0.16828498  0.29469654  0.51734952  1.0
  Si  Si19  1  0.19642191  0.10318051  0.78187224  1.0
  Si  Si20  1  0.21596282  0.28415895  0.69133626  1.0
  Si  Si21  1  0.22401121  0.14043651  0.95664533  1.0
  Si  Si22  1  0.22649202  0.60244127  0.00449643  1.0
  Si  Si23  1  0.25840288  0.93000039  0.44610652  1.0
  Si  Si24  1  0.26121439  0.31381836  0.00239332  1.0
  Si  Si25  1  0.26121598  0.43624935  0.13201815  1.0
  Si  Si26  1  0.26188960  0.79929613  0.73893829  1.0
  Si  Si27  1  0.26694719  0.75436670  0.56116195  1.0
  Si  Si28  1  0.27145499  0.02312563  0.25680623  1.0
  Si  Si29  1  0.28684965  0.95641804  0.07243725  1.0
  Si  Si30  1  0.32835063  0.96869791  0.71618396  1.0
  Si  Si31  1  0.34024514  0.50746040  0.40036650  1.0
  Si  Si32  1  0.34115849  0.30297696  0.40541743  1.0
  Si  Si33  1  0.34176495  0.53035869  0.74181966  1.0
  Si  Si34  1  0.35784381  0.65906778  0.84880323  1.0
  Si  Si35  1  0.37405162  0.17454197  0.27700598  1.0
  Si  Si36  1  0.38550879  0.00263261  0.52887892  1.0
  Si  Si37  1  0.39840809  0.58831550  0.55026490  1.0
  Si  Si38  1  0.40543880  0.39444235  0.88240299  1.0
  Si  Si39  1  0.41457937  0.27920129  0.66037969  1.0
  Si  Si40  1  0.41705163  0.05548436  0.91864019  1.0
  Si  Si41  1  0.41944944  0.23381158  0.09360698  1.0
  Si  Si42  1  0.42064090  0.79379491  0.06228509  1.0
  Si  Si43  1  0.45426887  0.17312950  0.52119521  1.0
  Si  Si44  1  0.46467812  0.42583741  0.04928475  1.0
  Si  Si45  1  0.47774809  0.22776827  0.82931637  1.0
  Si  Si46  1  0.48803238  0.57493943  0.28225811  1.0
  Si  Si47  1  0.50452223  0.60110493  0.08801407  1.0
  Si  Si48  1  0.50516459  0.74890065  0.32745216  1.0
  Si  Si49  1  0.50644748  0.98419515  0.75953293  1.0
  Si  Si50  1  0.50806573  0.79780743  0.71083226  1.0
  Si  Si51  1  0.51554641  0.05649942  0.06273999  1.0
  Si  Si52  1  0.51678543  0.87740303  0.16504724  1.0
  Si  Si53  1  0.52614426  0.42458231  0.56995189  1.0
  Si  Si54  1  0.54090149  0.83342391  0.90101400  1.0
  Si  Si55  1  0.54661129  0.64894900  0.87209037  1.0
  Si  Si56  1  0.55076705  0.88593216  0.49293239  1.0
  Si  Si57  1  0.55319243  0.69441205  0.51847843  1.0
  Si  Si58  1  0.57112080  0.14626375  0.26786636  1.0
  Si  Si59  1  0.61319604  0.44521213  0.37866152  1.0
  Si  Si60  1  0.64698308  0.45535538  0.68567503  1.0
  Si  Si61  1  0.65360076  0.14838651  0.50494344  1.0
  Si  Si62  1  0.65422213  0.96922313  0.32327406  1.0
  Si  Si63  1  0.65774448  0.63980452  0.69760978  1.0
  Si  Si64  1  0.66273768  0.26921982  0.34127785  1.0
  Si  Si65  1  0.66332989  0.37294573  0.02777760  1.0
  Si  Si66  1  0.66958944  0.19421747  0.81594160  1.0
  Si  Si67  1  0.68185118  0.18470133  0.09742771  1.0
  Si  Si68  1  0.68487858  0.76548584  0.17963796  1.0
  Si  Si69  1  0.69667730  0.60047954  0.10623258  1.0
  Si  Si70  1  0.69900643  0.06682877  0.96971341  1.0
  Si  Si71  1  0.70050491  0.69121678  0.37035770  1.0
  Si  Si72  1  0.71719052  0.85153948  0.58408569  1.0
  Si  Si73  1  0.71968653  0.36069407  0.84368031  1.0
  Si  Si74  1  0.72539034  0.86162260  0.90325161  1.0
  Si  Si75  1  0.74116516  0.12254013  0.66050964  1.0
  Si  Si76  1  0.77134155  0.99984147  0.44163052  1.0
  Si  Si77  1  0.78265403  0.52391362  0.32437399  1.0
  Si  Si78  1  0.78640820  0.93201858  0.71657059  1.0
  Si  Si79  1  0.80154150  0.67452176  0.93521627  1.0
  Si  Si80  1  0.80264463  0.90382620  0.19322827  1.0
  Si  Si81  1  0.83079344  0.40573832  0.61510361  1.0
  Si  Si82  1  0.83437402  0.62346114  0.76138909  1.0
  Si  Si83  1  0.83765492  0.72689608  0.47581138  1.0
  Si  Si84  1  0.84209197  0.26444000  0.24780602  1.0
  Si  Si85  1  0.84342731  0.09907899  0.18033771  1.0
  Si  Si86  1  0.84496950  0.37190841  0.07219796  1.0
  Si  Si87  1  0.85320364  0.93218808  0.99675667  1.0
  Si  Si88  1  0.88612347  0.20623508  0.99343897  1.0
  Si  Si89  1  0.88764785  0.52840386  0.46632094  1.0
  Si  Si90  1  0.88960304  0.43674736  0.77192083  1.0
  Si  Si91  1  0.89491607  0.21868116  0.63544797  1.0
  Si  Si92  1  0.92938264  0.82395604  0.31758584  1.0
  Si  Si93  1  0.93008507  0.53576991  0.02741934  1.0
  Si  Si94  1  0.94283566  0.74016223  0.62633846  1.0
  Si  Si95  1  0.95180597  0.54626041  0.20775555  1.0
  Si  Si96  1  0.95950267  0.18050776  0.81222790  1.0
  Si  Si97  1  0.96144876  0.75676789  0.95798181  1.0
  Si  Si98  1  0.96827329  0.97859333  0.37674086  1.0
  Si  Si99  1  0.98425051  0.90464183  0.68904026  1.0
