# generated using pymatgen
data_Si
_symmetry_space_group_name_H-M   Cmcm
_cell_length_a   3.85375800
_cell_length_b   5.71140266
_cell_length_c   12.72749600
_cell_angle_alpha   90.00000000
_cell_angle_beta   90.00000000
_cell_angle_gamma   109.71696704
_symmetry_Int_Tables_number   63
_chemical_formula_structural   Si
_chemical_formula_sum   Si12
_cell_volume   263.71258463
_cell_formula_units_Z   12
loop_
 _symmetry_equiv_pos_site_id
 _symmetry_equiv_pos_as_xyz
  1  'x, y, z'
  2  '-x, -y, -z'
  3  '-x, -y, z+1/2'
  4  'x, y, -z+1/2'
  5  'x-y, -y, -z'
  6  '-x+y, y, z'
  7  '-x+y, y, -z+1/2'
  8  'x-y, -y, z+1/2'
loop_
 _atom_site_type_symbol
 _atom_site_label
 _atom_site_symmetry_multiplicity
 _atom_site_fract_x
 _atom_site_fract_y
 _atom_site_fract_z
 _atom_site_occupancy
  Si  Si0  4  0.02865900  0.05731800  0.09053700  1.0
  Si  Si1  4  0.24272700  0.48545400  0.05470400  1.0
  Si  Si2  4  0.42876300  0.85752600  0.15702700  1.0
