# generated using pymatgen
data_Si
_symmetry_space_group_name_H-M   P1
_cell_length_a   11.69287432
_cell_length_b   12.67417055
_cell_length_c   13.41867354
_cell_angle_alpha   97.64455553
_cell_angle_beta   97.44287235
_cell_angle_gamma   99.39881517
_symmetry_Int_Tables_number   1
_chemical_formula_structural   Si
_chemical_formula_sum   Si100
_cell_volume   1921.07377324
_cell_formula_units_Z   100
loop_
 _symmetry_equiv_pos_site_id
 _symmetry_equiv_pos_as_xyz
  1  'x, y, z'
loop_
 _atom_site_type_symbol
 _atom_site_label
 _atom_site_symmetry_multiplicity
 _atom_site_fract_x
 _atom_site_fract_y
 _atom_site_fract_z
 _atom_site_occupancy
  Si  Si0  1  0.01217632  0.19293133  0.06662320  1.0
  Si  Si1  1  0.02560251  0.79499795  0.48254593  1.0
  Si  Si2  1  0.03485165  0.96496570  0.41082153  1.0
  Si  Si3  1  0.03495428  0.37287571  0.04389800  1.0
  Si  Si4  1  0.06926226  0.08573907  0.93492908  1.0
  Si  Si5  1  0.07500037  0.64929697  0.37272683  1.0
  Si  Si6  1  0.09297473  0.11000593  0.32115602  1.0
  Si  Si7  1  0.09937823  0.21059493  0.82530025  1.0
  Si  Si8  1  0.10319329  0.82793210  0.24263896  1.0
  Si  Si9  1  0.10382627  0.24038935  0.56727924  1.0
  Si  Si10  1  0.10769421  0.94471692  0.12059375  1.0
  Si  Si11  1  0.11273574  0.65743154  0.15123642  1.0
  Si  Si12  1  0.12481149  0.83290803  0.96812580  1.0
  Si  Si13  1  0.13447428  0.40825926  0.35493398  1.0
  Si  Si14  1  0.13890170  0.85917050  0.65875793  1.0
  Si  Si15  1  0.14146269  0.54176602  0.50710591  1.0
  Si  Si16  1  0.14792779  0.46970326  0.75899331  1.0
  Si  Si17  1  0.15110971  0.65592143  0.78892494  1.0
  Si  Si18  1  0.15589089  0.65593037  0.97789684  1.0
  Si  Si19  1  0.16178796  0.13986717  0.17142116  1.0
  Si  Si20  1  0.16670991  0.39114947  0.91027198  1.0
  Si  Si21  1  0.19658337  0.26600684  0.42875504  1.0
  Si  Si22  1  0.20179343  0.41598726  0.18904791  1.0
  Si  Si23  1  0.22186923  0.19015701  0.70184664  1.0
  Si  Si24  1  0.23686561  0.89622995  0.84265790  1.0
  Si  Si25  1  0.25347710  0.71862314  0.59450074  1.0
  Si  Si26  1  0.26692758  0.06997265  0.94860121  1.0
  Si  Si27  1  0.26927122  0.02064014  0.65019508  1.0
  Si  Si28  1  0.28163943  0.72439536  0.42113364  1.0
  Si  Si29  1  0.28608916  0.89189758  0.35344756  1.0
  Si  Si30  1  0.29212676  0.59845101  0.19217928  1.0
  Si  Si31  1  0.31306119  0.03047068  0.18352234  1.0
  Si  Si32  1  0.32862993  0.47719201  0.68772066  1.0
  Si  Si33  1  0.33869962  0.03185580  0.49327825  1.0
  Si  Si34  1  0.35683629  0.67599543  0.74405792  1.0
  Si  Si35  1  0.36317392  0.31092031  0.18864318  1.0
  Si  Si36  1  0.36662180  0.38579889  0.92457125  1.0
  Si  Si37  1  0.36889116  0.66829354  0.05392720  1.0
  Si  Si38  1  0.37787376  0.21570281  0.45266546  1.0
  Si  Si39  1  0.38177327  0.50719522  0.51887669  1.0
  Si  Si40  1  0.38183924  0.24552570  0.01615978  1.0
  Si  Si41  1  0.39278274  0.32709436  0.75771394  1.0
  Si  Si42  1  0.41699841  0.62129775  0.34676086  1.0
  Si  Si43  1  0.42545345  0.01413442  0.04910540  1.0
  Si  Si44  1  0.42721102  0.18201330  0.29129047  1.0
  Si  Si45  1  0.42867389  0.85097867  0.83783779  1.0
  Si  Si46  1  0.45273826  0.98602395  0.73027132  1.0
  Si  Si47  1  0.45787405  0.85352673  0.11793473  1.0
  Si  Si48  1  0.47129041  0.90673386  0.29602350  1.0
  Si  Si49  1  0.49296280  0.55168051  0.99170655  1.0
  Si  Si50  1  0.49561654  0.67088756  0.61952656  1.0
  Si  Si51  1  0.50231524  0.47534570  0.26156291  1.0
  Si  Si52  1  0.50936632  0.96998461  0.56476233  1.0
  Si  Si53  1  0.52196549  0.37995662  0.52017797  1.0
  Si  Si54  1  0.55423714  0.17554070  0.01514756  1.0
  Si  Si55  1  0.57235061  0.77247262  0.35792305  1.0
  Si  Si56  1  0.58452809  0.12301209  0.84404743  1.0
  Si  Si57  1  0.58488800  0.28005968  0.76608344  1.0
  Si  Si58  1  0.58617097  0.08871211  0.33213413  1.0
  Si  Si59  1  0.58711110  0.53775175  0.68790325  1.0
  Si  Si60  1  0.59799030  0.80824584  0.54284275  1.0
  Si  Si61  1  0.60864559  0.72942823  0.18655944  1.0
  Si  Si62  1  0.61605146  0.51153060  0.13105560  1.0
  Si  Si63  1  0.62269459  0.86698224  0.93377995  1.0
  Si  Si64  1  0.62952684  0.56377512  0.87516718  1.0
  Si  Si65  1  0.63332070  0.46208878  0.40294565  1.0
  Si  Si66  1  0.64340688  0.10783069  0.51868024  1.0
  Si  Si67  1  0.64960115  0.28292226  0.60548916  1.0
  Si  Si68  1  0.67077032  0.88756353  0.11650333  1.0
  Si  Si69  1  0.68723156  0.34989933  0.06772340  1.0
  Si  Si70  1  0.70295798  0.40054220  0.90257875  1.0
  Si  Si71  1  0.70990016  0.64117821  0.49298965  1.0
  Si  Si72  1  0.72385378  0.74017349  0.84551464  1.0
  Si  Si73  1  0.72757246  0.06555181  0.21931242  1.0
  Si  Si74  1  0.73718905  0.03032343  0.90413303  1.0
  Si  Si75  1  0.78029220  0.56583439  0.63906137  1.0
  Si  Si76  1  0.79037305  0.65518982  0.16104743  1.0
  Si  Si77  1  0.80050052  0.89019910  0.58870417  1.0
  Si  Si78  1  0.81926544  0.08360540  0.61265034  1.0
  Si  Si79  1  0.82116060  0.79127203  0.42653679  1.0
  Si  Si80  1  0.82181147  0.39423175  0.57956208  1.0
  Si  Si81  1  0.82206719  0.65350601  0.98702969  1.0
  Si  Si82  1  0.82653293  0.09675378  0.07668086  1.0
  Si  Si83  1  0.82943671  0.43830740  0.41671142  1.0
  Si  Si84  1  0.88608269  0.38239896  0.15330757  1.0
  Si  Si85  1  0.88753833  0.93405684  0.12203448  1.0
  Si  Si86  1  0.89668417  0.38039918  0.88643386  1.0
  Si  Si87  1  0.90296498  0.14496094  0.33233845  1.0
  Si  Si88  1  0.90481256  0.84371846  0.27254329  1.0
  Si  Si89  1  0.90490542  0.95750641  0.85548223  1.0
  Si  Si90  1  0.91646297  0.23625262  0.74954315  1.0
  Si  Si91  1  0.91665831  0.83021497  0.96794150  1.0
  Si  Si92  1  0.92829381  0.33129400  0.31364108  1.0
  Si  Si93  1  0.94507690  0.84896614  0.71154665  1.0
  Si  Si94  1  0.94525049  0.66927530  0.74584522  1.0
  Si  Si95  1  0.94889211  0.10088063  0.49653484  1.0
  Si  Si96  1  0.94999716  0.56949609  0.21413181  1.0
  Si  Si97  1  0.95698915  0.57274518  0.89369151  1.0
  Si  Si98  1  0.95727252  0.59892362  0.51778955  1.0
  Si  Si99  1  0.99761160  0.35581991  0.64795352  1.0
