# generated using pymatgen
data_Si
_symmetry_space_group_name_H-M   Cmcm
_cell_length_a   10.03420900
_cell_length_b   10.58979747
_cell_length_c   10.58979747
_cell_angle_alpha   105.07913234
_cell_angle_beta   90.00000000
_cell_angle_gamma   90.00000000
_symmetry_Int_Tables_number   63
_chemical_formula_structural   Si
_chemical_formula_sum   Si46
_cell_volume   1086.52835842
_cell_formula_units_Z   46
loop_
 _symmetry_equiv_pos_site_id
 _symmetry_equiv_pos_as_xyz
  1  'x, y, z'
  2  '-x, -y, -z'
  3  'x+1/2, -y, -z'
  4  '-x+1/2, y, z'
  5  '-x, -z, -y'
  6  'x, z, y'
  7  '-x+1/2, z, y'
  8  'x+1/2, -z, -y'
loop_
 _atom_site_type_symbol
 _atom_site_label
 _atom_site_symmetry_multiplicity
 _atom_site_fract_x
 _atom_site_fract_y
 _atom_site_fract_z
 _atom_site_occupancy
  Si  Si0  8  0.05902500  0.66846100  0.90636400  1.0
  Si  Si1  8  0.05923100  0.27357800  0.88931900  1.0
  Si  Si2  8  0.12650800  0.44852500  0.80052900  1.0
  Si  Si3  4  0.00000000  0.39913900  0.60086100  1.0
  Si  Si4  4  0.06094400  0.24807300  0.24807300  1.0
  Si  Si5  4  0.13114300  0.42083300  0.42083300  1.0
  Si  Si6  4  0.25000000  0.15991900  0.92839200  1.0
  Si  Si7  4  0.25000000  0.80085800  0.94241600  1.0
  Si  Si8  2  0.25000000  0.14384800  0.14384800  1.0
