# generated using pymatgen
data_Si
_symmetry_space_group_name_H-M   P1
_cell_length_a   3.97462346
_cell_length_b   5.45513625
_cell_length_c   9.01450123
_cell_angle_alpha   73.82698385
_cell_angle_beta   89.29696588
_cell_angle_gamma   68.76050114
_symmetry_Int_Tables_number   1
_chemical_formula_structural   Si
_chemical_formula_sum   Si8
_cell_volume   174.10767863
_cell_formula_units_Z   8
loop_
 _symmetry_equiv_pos_site_id
 _symmetry_equiv_pos_as_xyz
  1  'x, y, z'
loop_
 _atom_site_type_symbol
 _atom_site_label
 _atom_site_symmetry_multiplicity
 _atom_site_fract_x
 _atom_site_fract_y
 _atom_site_fract_z
 _atom_site_occupancy
  Si  Si0  1  0.15899200  0.26785600  0.80164500  1.0
  Si  Si1  1  0.43212600  0.62134700  0.51132200  1.0
  Si  Si2  1  0.43340500  0.76291600  0.24071800  1.0
  Si  Si3  1  0.49074700  0.56632600  0.00009200  1.0
  Si  Si4  1  0.71328500  0.15992300  0.68233000  1.0
  Si  Si5  1  0.87429300  0.73324600  0.62845900  1.0
  Si  Si6  1  0.90526000  0.74532200  0.08233300  1.0
  Si  Si7  1  0.99927600  0.15129100  0.05971100  1.0
