# generated using pymatgen
data_Si
_symmetry_space_group_name_H-M   P6/mmm
_cell_length_a   10.22146000
_cell_length_b   10.22145998
_cell_length_c   10.38879300
_cell_angle_alpha   90.00000000
_cell_angle_beta   90.00000000
_cell_angle_gamma   120.00000007
_symmetry_Int_Tables_number   191
_chemical_formula_structural   Si
_chemical_formula_sum   Si40
_cell_volume   939.98644365
_cell_formula_units_Z   40
loop_
 _symmetry_equiv_pos_site_id
 _symmetry_equiv_pos_as_xyz
  1  'x, y, z'
  2  '-x, -y, -z'
  3  'x-y, x, z'
  4  '-x+y, -x, -z'
  5  '-y, x-y, z'
  6  'y, -x+y, -z'
  7  '-x, -y, z'
  8  'x, y, -z'
  9  '-x+y, -x, z'
  10  'x-y, x, -z'
  11  'y, -x+y, z'
  12  '-y, x-y, -z'
  13  '-y, -x, -z'
  14  'y, x, z'
  15  '-x, -x+y, -z'
  16  'x, x-y, z'
  17  '-x+y, y, -z'
  18  'x-y, -y, z'
  19  'y, x, -z'
  20  '-y, -x, z'
  21  'x, x-y, -z'
  22  '-x, -x+y, z'
  23  'x-y, -y, -z'
  24  '-x+y, y, z'
loop_
 _atom_site_type_symbol
 _atom_site_label
 _atom_site_symmetry_multiplicity
 _atom_site_fract_x
 _atom_site_fract_y
 _atom_site_fract_z
 _atom_site_occupancy
  Si  Si0  12  0.00000000  0.38015500  0.18730300  1.0
  Si  Si1  12  0.20939200  0.41878400  0.31240500  1.0
  Si  Si2  6  0.00000000  0.24221000  0.00000000  1.0
  Si  Si3  6  0.13231700  0.26463400  0.50000000  1.0
  Si  Si4  4  0.33333333  0.66666667  0.38774400  1.0
