# generated using pymatgen
data_Si
_symmetry_space_group_name_H-M   P1
_cell_length_a   12.33642402
_cell_length_b   12.53983493
_cell_length_c   12.53708731
_cell_angle_alpha   101.53703375
_cell_angle_beta   102.84141907
_cell_angle_gamma   73.52804820
_symmetry_Int_Tables_number   1
_chemical_formula_structural   Si
_chemical_formula_sum   Si100
_cell_volume   1793.76493689
_cell_formula_units_Z   100
loop_
 _symmetry_equiv_pos_site_id
 _symmetry_equiv_pos_as_xyz
  1  'x, y, z'
loop_
 _atom_site_type_symbol
 _atom_site_label
 _atom_site_symmetry_multiplicity
 _atom_site_fract_x
 _atom_site_fract_y
 _atom_site_fract_z
 _atom_site_occupancy
  Si  Si0  1  0.00148530  0.59292212  0.80842734  1.0
  Si  Si1  1  0.02826434  0.93764313  0.91331495  1.0
  Si  Si2  1  0.04462563  0.39908802  0.98628507  1.0
  Si  Si3  1  0.05300102  0.59743782  0.04497197  1.0
  Si  Si4  1  0.06288544  0.25113156  0.39728882  1.0
  Si  Si5  1  0.06682514  0.98420878  0.32745853  1.0
  Si  Si6  1  0.08607624  0.86658270  0.73405891  1.0
  Si  Si7  1  0.09415590  0.56017753  0.42843939  1.0
  Si  Si8  1  0.10067910  0.37756382  0.81141284  1.0
  Si  Si9  1  0.10303731  0.76354942  0.00377794  1.0
  Si  Si10  1  0.12080503  0.22958144  0.07210716  1.0
  Si  Si11  1  0.12711300  0.78247785  0.30443505  1.0
  Si  Si12  1  0.12921102  0.08237825  0.91479702  1.0
  Si  Si13  1  0.13774208  0.66377361  0.73064789  1.0
  Si  Si14  1  0.14282787  0.43436396  0.27059618  1.0
  Si  Si15  1  0.16578270  0.00654520  0.18724773  1.0
  Si  Si16  1  0.16696071  0.00676779  0.52057407  1.0
  Si  Si17  1  0.17778255  0.40052885  0.63574704  1.0
  Si  Si18  1  0.19447183  0.79875566  0.49695109  1.0
  Si  Si19  1  0.19989526  0.19522584  0.60093215  1.0
  Si  Si20  1  0.20720180  0.17299480  0.79173270  1.0
  Si  Si21  1  0.21593603  0.97162106  0.71224113  1.0
  Si  Si22  1  0.22466972  0.52982519  0.18154035  1.0
  Si  Si23  1  0.22520342  0.62811075  0.57413869  1.0
  Si  Si24  1  0.22684154  0.80548642  0.17072342  1.0
  Si  Si25  1  0.23911528  0.12374435  0.34543906  1.0
  Si  Si26  1  0.24989590  0.64285820  0.90935107  1.0
  Si  Si27  1  0.27241998  0.44254006  0.90340715  1.0
  Si  Si28  1  0.29706307  0.28071361  0.32321654  1.0
  Si  Si29  1  0.32621312  0.34628952  0.52190885  1.0
  Si  Si30  1  0.32659035  0.20971012  0.12356523  1.0
  Si  Si31  1  0.32877945  0.95381067  0.97272337  1.0
  Si  Si32  1  0.35881259  0.97801345  0.44907311  1.0
  Si  Si33  1  0.36316641  0.38504957  0.07981390  1.0
  Si  Si34  1  0.36567803  0.12667619  0.93333649  1.0
  Si  Si35  1  0.36964368  0.59735508  0.31911680  1.0
  Si  Si36  1  0.39138128  0.38497346  0.76310041  1.0
  Si  Si37  1  0.39222403  0.14628977  0.55928681  1.0
  Si  Si38  1  0.39667749  0.74185000  0.94059867  1.0
  Si  Si39  1  0.40757100  0.72661590  0.48129268  1.0
  Si  Si40  1  0.41221346  0.67793078  0.18643726  1.0
  Si  Si41  1  0.41247916  0.91978551  0.79483066  1.0
  Si  Si42  1  0.42489202  0.61023508  0.61646832  1.0
  Si  Si43  1  0.44252141  0.02268786  0.15249949  1.0
  Si  Si44  1  0.48052954  0.72234867  0.78404713  1.0
  Si  Si45  1  0.48686663  0.50209890  0.08204269  1.0
  Si  Si46  1  0.48784418  0.18756009  0.74641110  1.0
  Si  Si47  1  0.49116316  0.94858806  0.32413011  1.0
  Si  Si48  1  0.49470519  0.41173550  0.61677853  1.0
  Si  Si49  1  0.49744837  0.27033138  0.34158663  1.0
  Si  Si50  1  0.50657206  0.22787294  0.99244315  1.0
  Si  Si51  1  0.52162990  0.47996495  0.89918704  1.0
  Si  Si52  1  0.53285616  0.44533663  0.33608494  1.0
  Si  Si53  1  0.55327257  0.20192248  0.52196358  1.0
  Si  Si54  1  0.55809958  0.00014232  0.77915493  1.0
  Si  Si55  1  0.56565154  0.76235885  0.24418221  1.0
  Si  Si56  1  0.57958727  0.73158225  0.05406125  1.0
  Si  Si57  1  0.60622203  0.73899011  0.51330855  1.0
  Si  Si58  1  0.60884799  0.10444419  0.25444052  1.0
  Si  Si59  1  0.61525000  0.90991746  0.07373771  1.0
  Si  Si60  1  0.61973280  0.28470044  0.89647571  1.0
  Si  Si61  1  0.64018819  0.91029775  0.61515265  1.0
  Si  Si62  1  0.64202676  0.43063200  0.51809613  1.0
  Si  Si63  1  0.64279371  0.00375640  0.46293180  1.0
  Si  Si64  1  0.66263588  0.45272386  0.21235463  1.0
  Si  Si65  1  0.67510922  0.18894739  0.70936660  1.0
  Si  Si66  1  0.67744315  0.14022135  0.10337962  1.0
  Si  Si67  1  0.68377508  0.65575850  0.80592406  1.0
  Si  Si68  1  0.69166832  0.98221587  0.95456184  1.0
  Si  Si69  1  0.69978305  0.59264631  0.61675537  1.0
  Si  Si70  1  0.70533622  0.48897520  0.87711936  1.0
  Si  Si71  1  0.71877069  0.36105294  0.70430863  1.0
  Si  Si72  1  0.72801260  0.69802860  0.37719247  1.0
  Si  Si73  1  0.73213386  0.56513138  0.09229231  1.0
  Si  Si74  1  0.76434226  0.28114367  0.41535307  1.0
  Si  Si75  1  0.77824312  0.26880448  0.22316749  1.0
  Si  Si76  1  0.78079582  0.08752743  0.41840535  1.0
  Si  Si77  1  0.80155730  0.86662992  0.18845005  1.0
  Si  Si78  1  0.81136369  0.19231443  0.98517036  1.0
  Si  Si79  1  0.82108930  0.86672416  0.72768963  1.0
  Si  Si80  1  0.82187540  0.84270309  0.38730071  1.0
  Si  Si81  1  0.82679433  0.50673934  0.33362439  1.0
  Si  Si82  1  0.83277726  0.05813051  0.81203895  1.0
  Si  Si83  1  0.83783486  0.74596217  0.85815188  1.0
  Si  Si84  1  0.86226934  0.37444359  0.99500429  1.0
  Si  Si85  1  0.86858339  0.03489630  0.25322050  1.0
  Si  Si86  1  0.88462781  0.86969825  0.02220872  1.0
  Si  Si87  1  0.88804487  0.65974590  0.13435093  1.0
  Si  Si88  1  0.89824511  0.53227096  0.63192019  1.0
  Si  Si89  1  0.92529841  0.32767285  0.69527317  1.0
  Si  Si90  1  0.94168574  0.72115050  0.62190152  1.0
  Si  Si91  1  0.94417384  0.43921600  0.19143328  1.0
  Si  Si92  1  0.95404747  0.22418614  0.51696001  1.0
  Si  Si93  1  0.96425344  0.14195333  0.76410152  1.0
  Si  Si94  1  0.96531182  0.04800574  0.09770359  1.0
  Si  Si95  1  0.96758895  0.05178415  0.57617957  1.0
  Si  Si96  1  0.97739888  0.23886395  0.20120121  1.0
  Si  Si97  1  0.98204252  0.69986870  0.31896847  1.0
  Si  Si98  1  0.99270257  0.85287257  0.53338044  1.0
  Si  Si99  1  0.99664412  0.44856038  0.47994219  1.0
