# generated using pymatgen
data_Si
_symmetry_space_group_name_H-M   P1
_cell_length_a   12.81884769
_cell_length_b   12.89176596
_cell_length_c   12.93019737
_cell_angle_alpha   108.58116852
_cell_angle_beta   106.27269514
_cell_angle_gamma   76.23957876
_symmetry_Int_Tables_number   1
_chemical_formula_structural   Si
_chemical_formula_sum   Si100
_cell_volume   1918.19224571
_cell_formula_units_Z   100
loop_
 _symmetry_equiv_pos_site_id
 _symmetry_equiv_pos_as_xyz
  1  'x, y, z'
loop_
 _atom_site_type_symbol
 _atom_site_label
 _atom_site_symmetry_multiplicity
 _atom_site_fract_x
 _atom_site_fract_y
 _atom_site_fract_z
 _atom_site_occupancy
  Si  Si0  1  0.00084957  0.64855525  0.05322396  1.0
  Si  Si1  1  0.00506167  0.95942941  0.57265557  1.0
  Si  Si2  1  0.00663517  0.17509196  0.18688175  1.0
  Si  Si3  1  0.01809332  0.90472691  0.86024634  1.0
  Si  Si4  1  0.05147237  0.38268118  0.88311984  1.0
  Si  Si5  1  0.05667167  0.91111942  0.30729415  1.0
  Si  Si6  1  0.06540087  0.46275877  0.51659800  1.0
  Si  Si7  1  0.08533583  0.13322404  0.93592169  1.0
  Si  Si8  1  0.08635667  0.23958045  0.71977577  1.0
  Si  Si9  1  0.09191437  0.64931348  0.63070925  1.0
  Si  Si10  1  0.09920320  0.91240225  0.05098635  1.0
  Si  Si11  1  0.11514687  0.42370367  0.20992134  1.0
  Si  Si12  1  0.11919124  0.65005361  0.81811843  1.0
  Si  Si13  1  0.13654660  0.68635306  0.37154377  1.0
  Si  Si14  1  0.13762340  0.30774443  0.03310679  1.0
  Si  Si15  1  0.15117216  0.36016026  0.65323547  1.0
  Si  Si16  1  0.15381445  0.58896254  0.18676684  1.0
  Si  Si17  1  0.17451165  0.13463908  0.46605792  1.0
  Si  Si18  1  0.17513475  0.46908075  0.84374485  1.0
  Si  Si19  1  0.18118152  0.06243367  0.18122769  1.0
  Si  Si20  1  0.18218596  0.00129535  0.57072498  1.0
  Si  Si21  1  0.18856874  0.39052254  0.39033637  1.0
  Si  Si22  1  0.22399793  0.97550992  0.32823892  1.0
  Si  Si23  1  0.24334180  0.73306619  0.64624174  1.0
  Si  Si24  1  0.25174436  0.80967761  0.50486933  1.0
  Si  Si25  1  0.25491598  0.11128314  0.74851145  1.0
  Si  Si26  1  0.25667820  0.03146071  0.88828590  1.0
  Si  Si27  1  0.27576871  0.79894915  0.10740744  1.0
  Si  Si28  1  0.28124806  0.71846183  0.91876939  1.0
  Si  Si29  1  0.28990224  0.53097900  0.41808507  1.0
  Si  Si30  1  0.30552332  0.23571099  0.44933985  1.0
  Si  Si31  1  0.31164598  0.66357487  0.20723934  1.0
  Si  Si32  1  0.31534711  0.83901271  0.82710714  1.0
  Si  Si33  1  0.32337994  0.28275893  0.11969353  1.0
  Si  Si34  1  0.33606044  0.31455485  0.64175346  1.0
  Si  Si35  1  0.34077908  0.11632784  0.16884092  1.0
  Si  Si36  1  0.36244820  0.43625253  0.95034393  1.0
  Si  Si37  1  0.38648764  0.58978148  0.60686982  1.0
  Si  Si38  1  0.39423463  0.41410248  0.28238497  1.0
  Si  Si39  1  0.39503362  0.72779642  0.40165368  1.0
  Si  Si40  1  0.41027836  0.91527631  0.42470867  1.0
  Si  Si41  1  0.41235214  0.16733042  0.72518115  1.0
  Si  Si42  1  0.42347716  0.49310246  0.15068043  1.0
  Si  Si43  1  0.42463289  0.47150484  0.72189401  1.0
  Si  Si44  1  0.42954884  0.03690995  0.01641801  1.0
  Si  Si45  1  0.43461367  0.57279444  0.91534512  1.0
  Si  Si46  1  0.45060208  0.14781821  0.35060514  1.0
  Si  Si47  1  0.46078347  0.82984571  0.15322772  1.0
  Si  Si48  1  0.46128018  0.87975396  0.72673095  1.0
  Si  Si49  1  0.48271759  0.83220628  0.97629573  1.0
  Si  Si50  1  0.48470072  0.20815369  0.04653823  1.0
  Si  Si51  1  0.49111296  0.98892462  0.62092520  1.0
  Si  Si52  1  0.50055005  0.27355512  0.90258466  1.0
  Si  Si53  1  0.52429022  0.95516002  0.33113433  1.0
  Si  Si54  1  0.53517485  0.68958443  0.65681324  1.0
  Si  Si55  1  0.55238187  0.63599263  0.10254512  1.0
  Si  Si56  1  0.55853627  0.27809182  0.34885256  1.0
  Si  Si57  1  0.56352054  0.61250443  0.46946263  1.0
  Si  Si58  1  0.57906078  0.94303540  0.90394005  1.0
  Si  Si59  1  0.58788997  0.38274450  0.66276593  1.0
  Si  Si60  1  0.60135385  0.43291913  0.50349866  1.0
  Si  Si61  1  0.61690860  0.46741307  0.17498693  1.0
  Si  Si62  1  0.63879015  0.24775350  0.19349020  1.0
  Si  Si63  1  0.63898927  0.39995456  0.97772020  1.0
  Si  Si64  1  0.64052442  0.18805825  0.60342055  1.0
  Si  Si65  1  0.67214775  0.78235346  0.96664293  1.0
  Si  Si66  1  0.67417087  0.63386113  0.80208492  1.0
  Si  Si67  1  0.68277319  0.94106831  0.61002357  1.0
  Si  Si68  1  0.69054617  0.46199319  0.83956334  1.0
  Si  Si69  1  0.70878823  0.56728386  0.36526230  1.0
  Si  Si70  1  0.71323637  0.93178453  0.42926097  1.0
  Si  Si71  1  0.71755752  0.70395260  0.13451895  1.0
  Si  Si72  1  0.72363184  0.13940449  0.44718218  1.0
  Si  Si73  1  0.72777772  0.16150319  0.90506631  1.0
  Si  Si74  1  0.74426846  0.72946354  0.33577710  1.0
  Si  Si75  1  0.75196759  0.00628113  0.96771207  1.0
  Si  Si76  1  0.75569569  0.06658444  0.16331299  1.0
  Si  Si77  1  0.77468920  0.09456833  0.73037660  1.0
  Si  Si78  1  0.79338361  0.42921669  0.56993147  1.0
  Si  Si79  1  0.79750832  0.78243322  0.66327730  1.0
  Si  Si80  1  0.79762056  0.87375191  0.15985747  1.0
  Si  Si81  1  0.80136089  0.27456156  0.64307447  1.0
  Si  Si82  1  0.81553999  0.60489491  0.70518448  1.0
  Si  Si83  1  0.82557295  0.30579480  0.02422823  1.0
  Si  Si84  1  0.85941621  0.84731153  0.86115082  1.0
  Si  Si85  1  0.86623636  0.57259863  0.08001511  1.0
  Si  Si86  1  0.87514291  0.40954677  0.92703014  1.0
  Si  Si87  1  0.88406769  0.34776633  0.22701170  1.0
  Si  Si88  1  0.88951312  0.40224452  0.42927043  1.0
  Si  Si89  1  0.90071307  0.87914399  0.36071270  1.0
  Si  Si90  1  0.93683083  0.07765145  0.27232843  1.0
  Si  Si91  1  0.93803044  0.09607503  0.99114893  1.0
  Si  Si92  1  0.94073777  0.51423001  0.24200919  1.0
  Si  Si93  1  0.94435270  0.78261920  0.57886808  1.0
  Si  Si94  1  0.94471582  0.15011797  0.57037153  1.0
  Si  Si95  1  0.94779078  0.69081657  0.38527564  1.0
  Si  Si96  1  0.95444399  0.66500780  0.86865076  1.0
  Si  Si97  1  0.97540246  0.04663641  0.75982529  1.0
  Si  Si98  1  0.98084220  0.84051263  0.11889989  1.0
  Si  Si99  1  0.98287056  0.21391936  0.43694326  1.0
