# generated using pymatgen
data_Si
_symmetry_space_group_name_H-M   Fmmm
_cell_length_a   3.63069306
_cell_length_b   3.63069306
_cell_length_c   5.27127950
_cell_angle_alpha   108.39264922
_cell_angle_beta   108.39264926
_cell_angle_gamma   94.80664085
_symmetry_Int_Tables_number   69
_chemical_formula_structural   Si
_chemical_formula_sum   Si4
_cell_volume   61.25699717
_cell_formula_units_Z   4
loop_
 _symmetry_equiv_pos_site_id
 _symmetry_equiv_pos_as_xyz
  1  'x, y, z'
  2  '-x, -y, -z'
  3  '-x+z, -y+z, z'
  4  'x-z, y-z, -z'
  5  'y-z, x-z, -z'
  6  '-y+z, -x+z, z'
  7  '-y, -x, -z'
  8  'y, x, z'
loop_
 _atom_site_type_symbol
 _atom_site_label
 _atom_site_symmetry_multiplicity
 _atom_site_fract_x
 _atom_site_fract_y
 _atom_site_fract_z
 _atom_site_occupancy
  Si  Si0  2  0.22131700  0.22131700  0.44263400  1.0
  Si  Si1  2  0.27136000  0.72864000  0.00000000  1.0
