# generated using pymatgen
data_Si
_symmetry_space_group_name_H-M   P1
_cell_length_a   5.04702600
_cell_length_b   5.43281360
_cell_length_c   6.90227929
_cell_angle_alpha   70.46155287
_cell_angle_beta   70.80064558
_cell_angle_gamma   83.80059797
_symmetry_Int_Tables_number   1
_chemical_formula_structural   Si
_chemical_formula_sum   Si8
_cell_volume   168.43868585
_cell_formula_units_Z   8
loop_
 _symmetry_equiv_pos_site_id
 _symmetry_equiv_pos_as_xyz
  1  'x, y, z'
loop_
 _atom_site_type_symbol
 _atom_site_label
 _atom_site_symmetry_multiplicity
 _atom_site_fract_x
 _atom_site_fract_y
 _atom_site_fract_z
 _atom_site_occupancy
  Si  Si0  1  0.24246200  0.02034700  0.11753900  1.0
  Si  Si1  1  0.24455400  0.57475000  0.30822300  1.0
  Si  Si2  1  0.24859100  0.99901700  0.62596900  1.0
  Si  Si3  1  0.24863100  0.55869000  0.65243200  1.0
  Si  Si4  1  0.54813200  0.22539500  0.24569000  1.0
  Si  Si5  1  0.55253300  0.20452200  0.74350800  1.0
  Si  Si6  1  0.93356400  0.21369900  0.89395900  1.0
  Si  Si7  1  0.94896600  0.21872600  0.39039000  1.0
