# generated using pymatgen
data_Si
_symmetry_space_group_name_H-M   P1
_cell_length_a   12.18200854
_cell_length_b   12.67697625
_cell_length_c   12.22570930
_cell_angle_alpha   75.67404941
_cell_angle_beta   80.75985292
_cell_angle_gamma   101.16800838
_symmetry_Int_Tables_number   1
_chemical_formula_structural   Si
_chemical_formula_sum   Si100
_cell_volume   1750.97284746
_cell_formula_units_Z   100
loop_
 _symmetry_equiv_pos_site_id
 _symmetry_equiv_pos_as_xyz
  1  'x, y, z'
loop_
 _atom_site_type_symbol
 _atom_site_label
 _atom_site_symmetry_multiplicity
 _atom_site_fract_x
 _atom_site_fract_y
 _atom_site_fract_z
 _atom_site_occupancy
  Si  Si0  1  0.00521803  0.94621406  0.67523922  1.0
  Si  Si1  1  0.00693368  0.45715988  0.76808946  1.0
  Si  Si2  1  0.05581904  0.28089773  0.77707635  1.0
  Si  Si3  1  0.05784173  0.92087054  0.13674741  1.0
  Si  Si4  1  0.06499344  0.72201156  0.18427782  1.0
  Si  Si5  1  0.06535736  0.34534710  0.23697642  1.0
  Si  Si6  1  0.06664993  0.74084846  0.62666584  1.0
  Si  Si7  1  0.08004411  0.83292843  0.42934843  1.0
  Si  Si8  1  0.10124695  0.15954583  0.27547199  1.0
  Si  Si9  1  0.11329065  0.56574891  0.43487718  1.0
  Si  Si10  1  0.12081647  0.03245546  0.90621028  1.0
  Si  Si11  1  0.13933207  0.39333523  0.40431642  1.0
  Si  Si12  1  0.13991394  0.20134446  0.96102320  1.0
  Si  Si13  1  0.14778706  0.75053749  0.87293853  1.0
  Si  Si14  1  0.15207542  0.58240001  0.61721570  1.0
  Si  Si15  1  0.16328544  0.12567410  0.61222979  1.0
  Si  Si16  1  0.16343178  0.45499188  0.04296151  1.0
  Si  Si17  1  0.18810246  0.87930501  0.68720045  1.0
  Si  Si18  1  0.18958718  0.87424988  0.98546749  1.0
  Si  Si19  1  0.19412205  0.62004760  0.10897196  1.0
  Si  Si20  1  0.19749624  0.32506772  0.60175700  1.0
  Si  Si21  1  0.20092900  0.75347012  0.31632612  1.0
  Si  Si22  1  0.22017358  0.15450039  0.40947819  1.0
  Si  Si23  1  0.24144429  0.00161185  0.16917873  1.0
  Si  Si24  1  0.25060278  0.98982809  0.36486834  1.0
  Si  Si25  1  0.25316906  0.61564710  0.81533512  1.0
  Si  Si26  1  0.26181353  0.19791962  0.10848262  1.0
  Si  Si27  1  0.27995955  0.32389103  0.79227741  1.0
  Si  Si28  1  0.29762538  0.75863054  0.61376620  1.0
  Si  Si29  1  0.31267703  0.50268555  0.65089531  1.0
  Si  Si30  1  0.31855935  0.34499654  0.34607659  1.0
  Si  Si31  1  0.32872679  0.05918400  0.66378674  1.0
  Si  Si32  1  0.34268446  0.61778640  0.21508391  1.0
  Si  Si33  1  0.35293816  0.72692005  0.95360259  1.0
  Si  Si34  1  0.35500139  0.42788464  0.99306681  1.0
  Si  Si35  1  0.35770813  0.79982959  0.40874735  1.0
  Si  Si36  1  0.36392823  0.93150402  0.04734606  1.0
  Si  Si37  1  0.37152964  0.26208426  0.63328153  1.0
  Si  Si38  1  0.39180535  0.05944011  0.84817555  1.0
  Si  Si39  1  0.40844291  0.46944698  0.16006892  1.0
  Si  Si40  1  0.42567369  0.28725264  0.91039271  1.0
  Si  Si41  1  0.43319013  0.18054216  0.20920339  1.0
  Si  Si42  1  0.44127414  0.65943780  0.36122152  1.0
  Si  Si43  1  0.44830527  0.61498706  0.86575891  1.0
  Si  Si44  1  0.45549859  0.67229150  0.66140345  1.0
  Si  Si45  1  0.45563924  0.00014168  0.34605604  1.0
  Si  Si46  1  0.45897332  0.90042455  0.82121078  1.0
  Si  Si47  1  0.47620853  0.35809457  0.43939703  1.0
  Si  Si48  1  0.47874863  0.51845358  0.50835190  1.0
  Si  Si49  1  0.48307011  0.78038480  0.08978417  1.0
  Si  Si50  1  0.48387446  0.04115212  0.52366522  1.0
  Si  Si51  1  0.51149940  0.87496655  0.63738192  1.0
  Si  Si52  1  0.53618272  0.36610567  0.70030879  1.0
  Si  Si53  1  0.54173349  0.19020192  0.02290520  1.0
  Si  Si54  1  0.57657007  0.31207601  0.26266594  1.0
  Si  Si55  1  0.57878603  0.18198556  0.75452383  1.0
  Si  Si56  1  0.59562043  0.41511775  0.95533266  1.0
  Si  Si57  1  0.61253992  0.77622406  0.22962185  1.0
  Si  Si58  1  0.61258617  0.49100425  0.12099845  1.0
  Si  Si59  1  0.62301583  0.99704823  0.21082928  1.0
  Si  Si60  1  0.63005746  0.92188954  0.88691154  1.0
  Si  Si61  1  0.63728930  0.04289142  0.00680066  1.0
  Si  Si62  1  0.64511156  0.81900034  0.43049691  1.0
  Si  Si63  1  0.64521679  0.63006959  0.55166079  1.0
  Si  Si64  1  0.64697537  0.73562285  0.97375378  1.0
  Si  Si65  1  0.64798270  0.14256232  0.57095228  1.0
  Si  Si66  1  0.66619797  0.35854533  0.51802517  1.0
  Si  Si67  1  0.67104081  0.51706801  0.75188962  1.0
  Si  Si68  1  0.67657426  0.69892747  0.78889093  1.0
  Si  Si69  1  0.69640887  0.20457991  0.17023494  1.0
  Si  Si70  1  0.69851048  0.61988230  0.22247801  1.0
  Si  Si71  1  0.70156617  0.84723217  0.61483955  1.0
  Si  Si72  1  0.73950827  0.01892327  0.69591672  1.0
  Si  Si73  1  0.74332517  0.31679804  0.96862091  1.0
  Si  Si74  1  0.74392328  0.30442869  0.34440239  1.0
  Si  Si75  1  0.74776317  0.55639398  0.40566027  1.0
  Si  Si76  1  0.75912432  0.23890411  0.80388755  1.0
  Si  Si77  1  0.79000031  0.97882178  0.29187744  1.0
  Si  Si78  1  0.82683421  0.36288367  0.60455260  1.0
  Si  Si79  1  0.82831961  0.77805131  0.35026666  1.0
  Si  Si80  1  0.83542081  0.80944596  0.98843714  1.0
  Si  Si81  1  0.83687115  0.15669771  0.45388764  1.0
  Si  Si82  1  0.83743782  0.48662927  0.05317905  1.0
  Si  Si83  1  0.84064102  0.07478008  0.99018523  1.0
  Si  Si84  1  0.85886848  0.90944052  0.13198633  1.0
  Si  Si85  1  0.86378905  0.51754174  0.67342633  1.0
  Si  Si86  1  0.86939392  0.18433746  0.24415028  1.0
  Si  Si87  1  0.87848022  0.70247256  0.54933403  1.0
  Si  Si88  1  0.88506790  0.97738888  0.53446399  1.0
  Si  Si89  1  0.88655743  0.74898993  0.73822593  1.0
  Si  Si90  1  0.89377565  0.65887980  0.12359087  1.0
  Si  Si91  1  0.90473243  0.15396992  0.73046190  1.0
  Si  Si92  1  0.91284084  0.44149848  0.23431224  1.0
  Si  Si93  1  0.94255568  0.98533870  0.85452166  1.0
  Si  Si94  1  0.94346428  0.67454645  0.91709285  1.0
  Si  Si95  1  0.94875582  0.56887960  0.35305958  1.0
  Si  Si96  1  0.95672177  0.22450596  0.03630847  1.0
  Si  Si97  1  0.96137258  0.27320020  0.52974368  1.0
  Si  Si98  1  0.97853684  0.96642230  0.34737936  1.0
  Si  Si99  1  0.99509036  0.42533266  0.96818214  1.0
