# generated using pymatgen
data_Si
_symmetry_space_group_name_H-M   P6_3/mmc
_cell_length_a   10.41140800
_cell_length_b   10.41140729
_cell_length_c   17.05618100
_cell_angle_alpha   90.00000000
_cell_angle_beta   90.00000000
_cell_angle_gamma   120.00000225
_symmetry_Int_Tables_number   194
_chemical_formula_structural   Si
_chemical_formula_sum   Si68
_cell_volume   1601.14742051
_cell_formula_units_Z   68
loop_
 _symmetry_equiv_pos_site_id
 _symmetry_equiv_pos_as_xyz
  1  'x, y, z'
  2  '-x, -y, -z'
  3  'x-y, x, z+1/2'
  4  '-x+y, -x, -z+1/2'
  5  '-y, x-y, z'
  6  'y, -x+y, -z'
  7  '-x, -y, z+1/2'
  8  'x, y, -z+1/2'
  9  '-x+y, -x, z'
  10  'x-y, x, -z'
  11  'y, -x+y, z+1/2'
  12  '-y, x-y, -z+1/2'
  13  '-y, -x, -z+1/2'
  14  'y, x, z+1/2'
  15  '-x, -x+y, -z'
  16  'x, x-y, z'
  17  '-x+y, y, -z+1/2'
  18  'x-y, -y, z+1/2'
  19  'y, x, -z'
  20  '-y, -x, z'
  21  'x, x-y, -z+1/2'
  22  '-x, -x+y, z+1/2'
  23  'x-y, -y, -z'
  24  '-x+y, y, z'
loop_
 _atom_site_type_symbol
 _atom_site_label
 _atom_site_symmetry_multiplicity
 _atom_site_fract_x
 _atom_site_fract_y
 _atom_site_fract_z
 _atom_site_occupancy
  Si  Si0  24  0.04983900  0.33042200  0.06455600  1.0
  Si  Si1  12  0.08425300  0.54212700  0.13522100  1.0
  Si  Si2  12  0.12346200  0.24692400  0.63871500  1.0
  Si  Si3  6  0.06927600  0.53463800  0.75000000  1.0
  Si  Si4  6  0.20220000  0.40440000  0.75000000  1.0
  Si  Si5  4  0.00000000  0.00000000  0.18170100  1.0
  Si  Si6  4  0.33333333  0.66666667  0.18042200  1.0
