# generated using pymatgen
data_Si
_symmetry_space_group_name_H-M   C2/c
_cell_length_a   9.90215454
_cell_length_b   14.84162398
_cell_length_c   14.84162398
_cell_angle_alpha   61.69805913
_cell_angle_beta   86.45320455
_cell_angle_gamma   86.45320455
_symmetry_Int_Tables_number   15
_chemical_formula_structural   Si
_chemical_formula_sum   Si82
_cell_volume   1915.45679085
_cell_formula_units_Z   82
loop_
 _symmetry_equiv_pos_site_id
 _symmetry_equiv_pos_as_xyz
  1  'x, y, z'
  2  '-x, -y, -z'
  3  '-x+1/2, -z, -y'
  4  'x+1/2, z, y'
loop_
 _atom_site_type_symbol
 _atom_site_label
 _atom_site_symmetry_multiplicity
 _atom_site_fract_x
 _atom_site_fract_y
 _atom_site_fract_z
 _atom_site_occupancy
  Si  Si0  4  0.00291200  0.94925600  0.86815800  1.0
  Si  Si1  4  0.00448200  0.87296200  0.17661000  1.0
  Si  Si2  4  0.00736600  0.82373500  0.04497300  1.0
  Si  Si3  4  0.09627400  0.11582000  0.35114100  1.0
  Si  Si4  4  0.10093200  0.65355100  0.45496100  1.0
  Si  Si5  4  0.10381200  0.27494400  0.34764600  1.0
  Si  Si6  4  0.10620500  0.67872500  0.59919200  1.0
  Si  Si7  4  0.11927900  0.45321900  0.88431600  1.0
  Si  Si8  4  0.12164600  0.54978400  0.09714900  1.0
  Si  Si9  4  0.14061600  0.34305000  0.55492300  1.0
  Si  Si10  4  0.14202000  0.90561900  0.64029300  1.0
  Si  Si11  4  0.17449200  0.08239600  0.21464000  1.0
  Si  Si12  4  0.17795300  0.28117400  0.93008800  1.0
  Si  Si13  4  0.18229000  0.78811200  0.29275800  1.0
  Si  Si14  4  0.18739800  0.20589200  0.72022500  1.0
  Si  Si15  4  0.19653000  0.70825100  0.07537400  1.0
  Si  Si16  4  0.19893100  0.91933400  0.78638400  1.0
  Si  Si17  4  0.23338700  0.54300900  0.72402400  1.0
  Si  Si18  4  0.23341100  0.39882400  0.21327600  1.0
  Si  Si19  4  0.24698800  0.51312300  0.97533400  1.0
  Si  Si20  2  0.25000000  0.50194900  0.49805100  1.0
