# generated using pymatgen
data_Si
_symmetry_space_group_name_H-M   P-3m1
_cell_length_a   10.01844000
_cell_length_b   10.01843953
_cell_length_c   16.11677800
_cell_angle_alpha   90.00000000
_cell_angle_beta   90.00000000
_cell_angle_gamma   120.00000156
_symmetry_Int_Tables_number   164
_chemical_formula_structural   Si
_chemical_formula_sum   Si58
_cell_volume   1400.90611625
_cell_formula_units_Z   58
loop_
 _symmetry_equiv_pos_site_id
 _symmetry_equiv_pos_as_xyz
  1  'x, y, z'
  2  '-x, -y, -z'
  3  '-y, x-y, z'
  4  'y, -x+y, -z'
  5  '-x+y, -x, z'
  6  'x-y, x, -z'
  7  'y, x, -z'
  8  '-y, -x, z'
  9  'x-y, -y, -z'
  10  '-x+y, y, z'
  11  '-x, -x+y, -z'
  12  'x, x-y, z'
loop_
 _atom_site_type_symbol
 _atom_site_label
 _atom_site_symmetry_multiplicity
 _atom_site_fract_x
 _atom_site_fract_y
 _atom_site_fract_z
 _atom_site_occupancy
  Si  Si0  12  0.00064900  0.24477400  0.32628300  1.0
  Si  Si1  12  0.00102800  0.38039700  0.79530700  1.0
  Si  Si2  12  0.08764900  0.42118300  0.44189000  1.0
  Si  Si3  6  0.13341300  0.26682600  0.00051700  1.0
  Si  Si4  6  0.20850900  0.79149000  0.12300500  1.0
  Si  Si5  6  0.20868900  0.41737800  0.87837700  1.0
  Si  Si6  2  0.33333333  0.66666667  0.07289500  1.0
  Si  Si7  2  0.33333333  0.66666667  0.92861900  1.0
