# generated using pymatgen
data_Si
_symmetry_space_group_name_H-M   P4_2/nmc
_cell_length_a   10.17741100
_cell_length_b   10.17741100
_cell_length_c   24.22729500
_cell_angle_alpha   90.00000000
_cell_angle_beta   90.00000000
_cell_angle_gamma   90.00000000
_symmetry_Int_Tables_number   137
_chemical_formula_structural   Si
_chemical_formula_sum   Si106
_cell_volume   2509.45581861
_cell_formula_units_Z   106
loop_
 _symmetry_equiv_pos_site_id
 _symmetry_equiv_pos_as_xyz
  1  'x, y, z'
  2  '-y+1/2, x+1/2, z+1/2'
  3  '-x, -y, z'
  4  'y+1/2, -x+1/2, z+1/2'
  5  'x+1/2, -y+1/2, -z+1/2'
  6  '-y, -x, -z'
  7  '-x+1/2, y+1/2, -z+1/2'
  8  'y, x, -z'
  9  '-x+1/2, -y+1/2, -z+1/2'
  10  'y, -x, -z'
  11  'x+1/2, y+1/2, -z+1/2'
  12  '-y, x, -z'
  13  '-x, y, z'
  14  'y+1/2, x+1/2, z+1/2'
  15  'x, -y, z'
  16  '-y+1/2, -x+1/2, z+1/2'
loop_
 _atom_site_type_symbol
 _atom_site_label
 _atom_site_symmetry_multiplicity
 _atom_site_fract_x
 _atom_site_fract_y
 _atom_site_fract_z
 _atom_site_occupancy
  Si  Si0  16  0.11732200  0.31952900  0.23489700  1.0
  Si  Si1  16  0.12206700  0.20582200  0.38862100  1.0
  Si  Si2  16  0.17965600  0.25470600  0.81682700  1.0
  Si  Si3  16  0.18324700  0.31575500  0.47126400  1.0
  Si  Si4  8  0.00000000  0.12999900  0.85219400  1.0
  Si  Si5  8  0.00000000  0.18988400  0.94612200  1.0
  Si  Si6  8  0.00000000  0.23564100  0.60321100  1.0
  Si  Si7  8  0.00000000  0.38045000  0.52443200  1.0
  Si  Si8  8  0.00000000  0.38381800  0.67683600  1.0
  Si  Si9  2  0.00000000  0.00000000  0.00000000  1.0
