# generated using pymatgen
data_Si
_symmetry_space_group_name_H-M   Fmmm
_cell_length_a   2.57766104
_cell_length_b   2.57766104
_cell_length_c   4.99073639
_cell_angle_alpha   101.93693811
_cell_angle_beta   101.93693811
_cell_angle_gamma   101.48276971
_symmetry_Int_Tables_number   69
_chemical_formula_structural   Si
_chemical_formula_sum   Si2
_cell_volume   30.71164293
_cell_formula_units_Z   2
loop_
 _symmetry_equiv_pos_site_id
 _symmetry_equiv_pos_as_xyz
  1  'x, y, z'
  2  '-x, -y, -z'
  3  '-x+z+1/2, -y+z+1/2, z'
  4  'x-z+1/2, y-z+1/2, -z'
  5  'y-z, x-z, -z'
  6  '-y+z, -x+z, z'
  7  '-y+1/2, -x+1/2, -z'
  8  'y+1/2, x+1/2, z'
loop_
 _atom_site_type_symbol
 _atom_site_label
 _atom_site_symmetry_multiplicity
 _atom_site_fract_x
 _atom_site_fract_y
 _atom_site_fract_z
 _atom_site_occupancy
  Si  Si0  2  0.36455950  0.86455950  0.22911900  1.0
