# generated using pymatgen
data_Ta10Si5.37634409
_symmetry_space_group_name_H-M   P6_3/mcm
_cell_length_a   5.27979700
_cell_length_b   7.52935600
_cell_length_c   7.52935637
_cell_angle_alpha   119.99999837
_cell_angle_beta   90.00000000
_cell_angle_gamma   90.00000000
_symmetry_Int_Tables_number   193
_chemical_formula_structural   Ta10Si5.37634409
_chemical_formula_sum   'Ta10 Si5.37634409'
_cell_volume   259.21704090
_cell_formula_units_Z   1
loop_
 _symmetry_equiv_pos_site_id
 _symmetry_equiv_pos_as_xyz
  1  'x, y, z'
  2  '-x, -y, -z'
  3  'x+1/2, y-z, y'
  4  '-x+1/2, -y+z, -y'
  5  'x, -z, y-z'
  6  '-x, z, -y+z'
  7  'x+1/2, -y, -z'
  8  '-x+1/2, y, z'
  9  'x, -y+z, -y'
  10  '-x, y-z, y'
  11  'x+1/2, z, -y+z'
  12  '-x+1/2, -z, y-z'
  13  '-x, -z, -y'
  14  'x, z, y'
  15  '-x+1/2, -y, -y+z'
  16  'x+1/2, y, y-z'
  17  '-x, -y+z, z'
  18  'x, y-z, -z'
  19  '-x+1/2, z, y'
  20  'x+1/2, -z, -y'
  21  '-x, y, y-z'
  22  'x, -y, -y+z'
  23  '-x+1/2, y-z, -z'
  24  'x+1/2, -y+z, z'
loop_
 _atom_site_type_symbol
 _atom_site_label
 _atom_site_symmetry_multiplicity
 _atom_site_fract_x
 _atom_site_fract_y
 _atom_site_fract_z
 _atom_site_occupancy
  Ta  Ta0  6  0.25000000  0.00000000  0.75420700  1.0
  Ta  Ta1  4  0.00000000  0.33333333  0.66666667  1.0
  Si  Si2  6  0.25000000  0.00000000  0.39543100  0.8960573476666667
