# generated using pymatgen
data_U3Si
_symmetry_space_group_name_H-M   I4/mcm
_cell_length_a   6.00078790
_cell_length_b   6.00078790
_cell_length_c   6.00078790
_cell_angle_alpha   89.77011778
_cell_angle_beta   60.13263369
_cell_angle_gamma   119.86736631
_symmetry_Int_Tables_number   140
_chemical_formula_structural   U3Si
_chemical_formula_sum   'U6 Si2'
_cell_volume   153.10022532
_cell_formula_units_Z   2
loop_
 _symmetry_equiv_pos_site_id
 _symmetry_equiv_pos_as_xyz
  1  'x, y, z'
  2  '-x, -y, -z'
  3  '-y-z, -z, x+z'
  4  'y+z, z, -x-z'
  5  '-x, -x-z, x-y'
  6  'x, x+z, -x+y'
  7  'y+z, -x+y, -y'
  8  '-y-z, x-y, y'
  9  '-y-z, -y+1/2, -x+y+1/2'
  10  'y+z, y+1/2, x-y+1/2'
  11  '-x, z+1/2, y+1/2'
  12  'x, -z+1/2, -y+1/2'
  13  'y+z, x+z+1/2, -z+1/2'
  14  '-y-z, -x-z+1/2, z+1/2'
  15  'x, x-y+1/2, -x-z+1/2'
  16  '-x, -x+y+1/2, x+z+1/2'
loop_
 _atom_site_type_symbol
 _atom_site_label
 _atom_site_symmetry_multiplicity
 _atom_site_fract_x
 _atom_site_fract_y
 _atom_site_fract_z
 _atom_site_occupancy
  U  U0  4  0.04806100  0.77403100  0.72596900  1.0
  U  U1  2  0.50000000  0.25000000  0.25000000  1.0
  Si  Si2  2  0.00000000  0.25000000  0.75000000  1.0
