# generated using pymatgen
data_U3Si
_symmetry_space_group_name_H-M   I4/mmm
_cell_length_a   5.99674000
_cell_length_b   6.01983971
_cell_length_c   5.99674000
_cell_angle_alpha   60.12685466
_cell_angle_beta   90.00000000
_cell_angle_gamma   119.87314534
_symmetry_Int_Tables_number   139
_chemical_formula_structural   U3Si
_chemical_formula_sum   'U6 Si2'
_cell_volume   153.65876402
_cell_formula_units_Z   2
loop_
 _symmetry_equiv_pos_site_id
 _symmetry_equiv_pos_as_xyz
  1  'x, y, z'
  2  '-x, -y, -z'
  3  '-z, y, x-y'
  4  'z, -y, -x+y'
  5  '-x+y, y, -y-z'
  6  'x-y, -y, y+z'
  7  'y+z, y, -x'
  8  '-y-z, -y, x'
  9  '-x, -y, y+z'
  10  'x, y, -y-z'
  11  'z, -y, x'
  12  '-z, y, -x'
  13  'x-y, -y, -z'
  14  '-x+y, y, z'
  15  '-y-z, -y, -x+y'
  16  'y+z, y, x-y'
loop_
 _atom_site_type_symbol
 _atom_site_label
 _atom_site_symmetry_multiplicity
 _atom_site_fract_x
 _atom_site_fract_y
 _atom_site_fract_z
 _atom_site_occupancy
  U  U0  4  0.22895300  0.00000000  0.22895300  1.0
  U  U1  2  0.27854800  0.55709600  0.72145200  1.0
  Si  Si2  2  0.25000000  0.50000000  0.25000000  1.0
