# generated using pymatgen
data_YSi
_symmetry_space_group_name_H-M   Cmcm
_cell_length_a   3.84254600
_cell_length_b   4.28920200
_cell_length_c   5.69978563
_cell_angle_alpha   67.89779375
_cell_angle_beta   90.00000000
_cell_angle_gamma   90.00000000
_symmetry_Int_Tables_number   63
_chemical_formula_structural   YSi
_chemical_formula_sum   'Y2 Si2'
_cell_volume   87.03744832
_cell_formula_units_Z   2
loop_
 _symmetry_equiv_pos_site_id
 _symmetry_equiv_pos_as_xyz
  1  'x, y, z'
  2  '-x, -y, -z'
  3  'x+1/2, -y, -z'
  4  '-x+1/2, y, z'
  5  '-x, y+z, -z'
  6  'x, -y-z, z'
  7  '-x+1/2, -y-z, z'
  8  'x+1/2, y+z, -z'
loop_
 _atom_site_type_symbol
 _atom_site_label
 _atom_site_symmetry_multiplicity
 _atom_site_fract_x
 _atom_site_fract_y
 _atom_site_fract_z
 _atom_site_occupancy
  Y  Y0  2  0.25000000  0.85978500  0.28043000  1.0
  Si  Si1  2  0.25000000  0.57603600  0.84792800  1.0
