# generated using pymatgen
data_Zr2Si
_symmetry_space_group_name_H-M   P6_3/mcm
_cell_length_a   5.57493200
_cell_length_b   8.01803400
_cell_length_c   8.01803302
_cell_angle_alpha   120.00000404
_cell_angle_beta   90.00000000
_cell_angle_gamma   90.00000000
_symmetry_Int_Tables_number   193
_chemical_formula_structural   Zr2Si
_chemical_formula_sum   'Zr10 Si5'
_cell_volume   310.38871463
_cell_formula_units_Z   5
loop_
 _symmetry_equiv_pos_site_id
 _symmetry_equiv_pos_as_xyz
  1  'x, y, z'
  2  '-x, -y, -z'
  3  'x+1/2, z, -y+z'
  4  '-x+1/2, -z, y-z'
  5  'x, -y+z, -y'
  6  '-x, y-z, y'
  7  'x+1/2, -y, -z'
  8  '-x+1/2, y, z'
  9  'x, -z, y-z'
  10  '-x, z, -y+z'
  11  'x+1/2, y-z, y'
  12  '-x+1/2, -y+z, -y'
  13  '-x, -y+z, z'
  14  'x, y-z, -z'
  15  '-x+1/2, -y, -y+z'
  16  'x+1/2, y, y-z'
  17  '-x, -z, -y'
  18  'x, z, y'
  19  '-x+1/2, y-z, -z'
  20  'x+1/2, -y+z, z'
  21  '-x, y, y-z'
  22  'x, -y, -y+z'
  23  '-x+1/2, z, y'
  24  'x+1/2, -z, -y'
loop_
 _atom_site_type_symbol
 _atom_site_label
 _atom_site_symmetry_multiplicity
 _atom_site_fract_x
 _atom_site_fract_y
 _atom_site_fract_z
 _atom_site_occupancy
  Zr  Zr0  6  0.25000000  0.00000000  0.74747200  1.0
  Zr  Zr1  4  0.00000000  0.33333333  0.66666667  1.0
  Si  Si2  6  0.25000000  0.00000000  0.38951400  0.8333333333333334
