# generated using pymatgen
data_TiSi2
_symmetry_space_group_name_H-M   Fddd
_cell_length_a   5.05176862
_cell_length_b   5.05176862
_cell_length_c   5.26236498
_cell_angle_alpha   118.07965640
_cell_angle_beta   118.07965639
_cell_angle_gamma   91.10920543
_symmetry_Int_Tables_number   70
_chemical_formula_structural   TiSi2
_chemical_formula_sum   'Ti2 Si4'
_cell_volume   99.41034853
_cell_formula_units_Z   2
loop_
 _symmetry_equiv_pos_site_id
 _symmetry_equiv_pos_as_xyz
  1  'x, y, z'
  2  '-x+z, -y+z+1/2, z'
  3  'y-z+1/2, x-z, -z+1/2'
  4  '-y, -x, -z+1/2'
  5  '-x, -y, -z'
  6  'x-z, y-z+1/2, -z'
  7  '-y+z+1/2, -x+z, z+1/2'
  8  'y, x, z+1/2'
loop_
 _atom_site_type_symbol
 _atom_site_label
 _atom_site_symmetry_multiplicity
 _atom_site_fract_x
 _atom_site_fract_y
 _atom_site_fract_z
 _atom_site_occupancy
  Ti  Ti0  2  0.12500000  0.87500000  0.25000000  1.0
  Si  Si1  4  0.20856500  0.45856500  0.41713000  1.0
