# generated using pymatgen
data_TiSi2
_symmetry_space_group_name_H-M   Cmcm
_cell_length_a   3.55916800
_cell_length_b   3.57180800
_cell_length_c   6.97971100
_cell_angle_alpha   90.00000000
_cell_angle_beta   104.77152810
_cell_angle_gamma   90.00000000
_symmetry_Int_Tables_number   63
_chemical_formula_structural   TiSi2
_chemical_formula_sum   'Ti2 Si4'
_cell_volume   85.79819381
_cell_formula_units_Z   2
loop_
 _symmetry_equiv_pos_site_id
 _symmetry_equiv_pos_as_xyz
  1  'x, y, z'
  2  '-x, -y, -z'
  3  '-x, y+1/2, -z'
  4  'x, -y+1/2, z'
  5  'x-z, -y, -z'
  6  '-x+z, y, z'
  7  '-x+z, -y+1/2, z'
  8  'x-z, y+1/2, -z'
loop_
 _atom_site_type_symbol
 _atom_site_label
 _atom_site_symmetry_multiplicity
 _atom_site_fract_x
 _atom_site_fract_y
 _atom_site_fract_z
 _atom_site_occupancy
  Ti  Ti0  2  0.10275100  0.25000000  0.20550200  1.0
  Si  Si1  2  0.24984500  0.75000000  0.49969000  1.0
  Si  Si2  2  0.44023000  0.25000000  0.88046000  1.0
