# generated using pymatgen
data_TiSi2
_symmetry_space_group_name_H-M   Fddd
_cell_length_a   4.77905391
_cell_length_b   4.77905391
_cell_length_c   4.91218733
_cell_angle_alpha   104.25461896
_cell_angle_beta   104.25461899
_cell_angle_gamma   119.59185552
_symmetry_Int_Tables_number   70
_chemical_formula_structural   TiSi2
_chemical_formula_sum   'Ti2 Si4'
_cell_volume   85.07343615
_cell_formula_units_Z   2
loop_
 _symmetry_equiv_pos_site_id
 _symmetry_equiv_pos_as_xyz
  1  'x, y, z'
  2  '-x+z, -y+z, z'
  3  'y-z, x-z, -z'
  4  '-y, -x, -z'
  5  '-x+1/4, -y+3/4, -z+1/2'
  6  'x-z+1/4, y-z+3/4, -z+1/2'
  7  '-y+z+1/4, -x+z+3/4, z+1/2'
  8  'y+1/4, x+3/4, z+1/2'
loop_
 _atom_site_type_symbol
 _atom_site_label
 _atom_site_symmetry_multiplicity
 _atom_site_fract_x
 _atom_site_fract_y
 _atom_site_fract_z
 _atom_site_occupancy
  Ti  Ti0  2  0.00000000  0.00000000  0.00000000  1.0
  Si  Si1  4  0.33666600  0.66333400  0.00000000  1.0
