# generated using pymatgen
data_VSi2
_symmetry_space_group_name_H-M   P6_222
_cell_length_a   4.56470000
_cell_length_b   4.56470073
_cell_length_c   6.37175500
_cell_angle_alpha   90.00000000
_cell_angle_beta   90.00000000
_cell_angle_gamma   119.99999473
_symmetry_Int_Tables_number   180
_chemical_formula_structural   VSi2
_chemical_formula_sum   'V3 Si6'
_cell_volume   114.97787374
_cell_formula_units_Z   3
loop_
 _symmetry_equiv_pos_site_id
 _symmetry_equiv_pos_as_xyz
  1  'x, y, z'
  2  'x-y, x, z+1/3'
  3  '-y, x-y, z+2/3'
  4  '-x, -y, z'
  5  '-x+y, -x, z+1/3'
  6  'y, -x+y, z+2/3'
  7  '-y, -x, -z'
  8  '-x, -x+y, -z+2/3'
  9  '-x+y, y, -z+1/3'
  10  'y, x, -z'
  11  'x, x-y, -z+2/3'
  12  'x-y, -y, -z+1/3'
loop_
 _atom_site_type_symbol
 _atom_site_label
 _atom_site_symmetry_multiplicity
 _atom_site_fract_x
 _atom_site_fract_y
 _atom_site_fract_z
 _atom_site_occupancy
  V  V0  3  0.00000000  0.50000000  0.83333367  1.0
  Si  Si1  6  0.16284700  0.32569400  0.16666700  1.0
