# generated using pymatgen
data_YSi2
_symmetry_space_group_name_H-M   Pm
_cell_length_a   4.18919900
_cell_length_b   8.12625937
_cell_length_c   8.17604368
_cell_angle_alpha   112.37496271
_cell_angle_beta   90.00000000
_cell_angle_gamma   90.00000000
_symmetry_Int_Tables_number   6
_chemical_formula_structural   YSi2
_chemical_formula_sum   'Y4 Si8'
_cell_volume   257.37809771
_cell_formula_units_Z   4
loop_
 _symmetry_equiv_pos_site_id
 _symmetry_equiv_pos_as_xyz
  1  'x, y, z'
  2  '-x, y, z'
loop_
 _atom_site_type_symbol
 _atom_site_label
 _atom_site_symmetry_multiplicity
 _atom_site_fract_x
 _atom_site_fract_y
 _atom_site_fract_z
 _atom_site_occupancy
  Y  Y0  1  0.00000000  0.01402800  0.97614000  1.0
  Y  Y1  1  0.00000000  0.04169500  0.47999800  1.0
  Y  Y2  1  0.00000000  0.47976800  0.85257800  1.0
  Y  Y3  1  0.00000000  0.52080300  0.40237600  1.0
  Si  Si4  1  0.50000000  0.26274500  0.24669100  1.0
  Si  Si5  1  0.50000000  0.28803800  0.96400000  1.0
  Si  Si6  1  0.50000000  0.33400500  0.57690700  1.0
  Si  Si7  1  0.50000000  0.67119200  0.24415500  1.0
  Si  Si8  1  0.50000000  0.67987500  0.67692200  1.0
  Si  Si9  1  0.50000000  0.73562800  0.97496000  1.0
  Si  Si10  1  0.50000000  0.97393800  0.23035400  1.0
  Si  Si11  1  0.50000000  0.99838400  0.70801600  1.0
