# generated using pymatgen
data_ZrSi2
_symmetry_space_group_name_H-M   Cmcm
_cell_length_a   3.68008800
_cell_length_b   3.72069400
_cell_length_c   7.60747576
_cell_angle_alpha   75.84523365
_cell_angle_beta   90.00000000
_cell_angle_gamma   90.00000000
_symmetry_Int_Tables_number   63
_chemical_formula_structural   ZrSi2
_chemical_formula_sum   'Zr2 Si4'
_cell_volume   101.00262966
_cell_formula_units_Z   2
loop_
 _symmetry_equiv_pos_site_id
 _symmetry_equiv_pos_as_xyz
  1  'x, y, z'
  2  '-x, -y, -z'
  3  'x+1/2, -y, -z'
  4  '-x+1/2, y, z'
  5  '-x, y+z, -z'
  6  'x, -y-z, z'
  7  '-x+1/2, -y-z, z'
  8  'x+1/2, y+z, -z'
loop_
 _atom_site_type_symbol
 _atom_site_label
 _atom_site_symmetry_multiplicity
 _atom_site_fract_x
 _atom_site_fract_y
 _atom_site_fract_z
 _atom_site_occupancy
  Zr  Zr0  2  0.25000000  0.89507100  0.20985800  1.0
  Si  Si1  2  0.25000000  0.25026100  0.49947800  1.0
  Si  Si2  2  0.25000000  0.55354500  0.89291000  1.0
