# generated using pymatgen
data_Sr2Si3
_symmetry_space_group_name_H-M   Imm2
_cell_length_a   3.92778200
_cell_length_b   4.69722800
_cell_length_c   8.08446546
_cell_angle_alpha   106.88846138
_cell_angle_beta   104.05903788
_cell_angle_gamma   89.99999999
_symmetry_Int_Tables_number   44
_chemical_formula_structural   Sr2Si3
_chemical_formula_sum   'Sr2 Si3'
_cell_volume   138.04722293
_cell_formula_units_Z   1
loop_
 _symmetry_equiv_pos_site_id
 _symmetry_equiv_pos_as_xyz
  1  'x, y, z'
  2  '-x+z, -y+z, z'
  3  '-x+z, y, z'
  4  'x, -y+z, z'
loop_
 _atom_site_type_symbol
 _atom_site_label
 _atom_site_symmetry_multiplicity
 _atom_site_fract_x
 _atom_site_fract_y
 _atom_site_fract_z
 _atom_site_occupancy
  Sr  Sr0  1  0.75324200  0.25324200  0.50648400  1.0
  Sr  Sr1  1  0.99516500  0.99516500  0.99033000  1.0
  Si  Si2  1  0.16810100  0.66810100  0.33620200  1.0
  Si  Si3  1  0.42212600  0.42212600  0.84425200  1.0
  Si  Si4  1  0.57636600  0.57636600  0.15273200  1.0
