# generated using pymatgen
data_V5Si3
_symmetry_space_group_name_H-M   I4/mcm
_cell_length_a   6.18661600
_cell_length_b   7.04540586
_cell_length_c   6.18661600
_cell_angle_alpha   116.04348726
_cell_angle_beta   89.99999999
_cell_angle_gamma   116.04348727
_symmetry_Int_Tables_number   140
_chemical_formula_structural   V5Si3
_chemical_formula_sum   'V10 Si6'
_cell_volume   211.37847547
_cell_formula_units_Z   2
loop_
 _symmetry_equiv_pos_site_id
 _symmetry_equiv_pos_as_xyz
  1  'x, y, z'
  2  '-x, -y, -z'
  3  'y-z, y, x'
  4  '-y+z, -y, -x'
  5  '-x+y, y, y-z'
  6  'x-y, -y, -y+z'
  7  'z, y, -x+y'
  8  '-z, -y, x-y'
  9  'x-y+1/2, -y, -z+1/2'
  10  '-x+y+1/2, y, z+1/2'
  11  '-z+1/2, -y, -x+1/2'
  12  'z+1/2, y, x+1/2'
  13  '-x+1/2, -y, -y+z+1/2'
  14  'x+1/2, y, y-z+1/2'
  15  '-y+z+1/2, -y, x-y+1/2'
  16  'y-z+1/2, y, -x+y+1/2'
loop_
 _atom_site_type_symbol
 _atom_site_label
 _atom_site_symmetry_multiplicity
 _atom_site_fract_x
 _atom_site_fract_y
 _atom_site_fract_z
 _atom_site_occupancy
  V  V0  8  0.01399300  0.69678200  0.18278900  1.0
  V  V1  2  0.00000000  0.00000000  0.00000000  1.0
  Si  Si2  4  0.13282600  0.00000000  0.63282600  1.0
  Si  Si3  2  0.25000000  0.50000000  0.25000000  1.0
