# generated using pymatgen
data_Si3W5
_symmetry_space_group_name_H-M   I4/mcm
_cell_length_a   4.99879400
_cell_length_b   7.27988172
_cell_length_c   7.27988172
_cell_angle_alpha   83.23051925
_cell_angle_beta   69.92015410
_cell_angle_gamma   69.92015409
_symmetry_Int_Tables_number   140
_chemical_formula_structural   Si3W5
_chemical_formula_sum   'Si6 W10'
_cell_volume   233.69208233
_cell_formula_units_Z   2
loop_
 _symmetry_equiv_pos_site_id
 _symmetry_equiv_pos_as_xyz
  1  'x, y, z'
  2  '-x, -y, -z'
  3  'x+z, -z, y'
  4  '-x-z, z, -y'
  5  'x+y+z, -y, -z'
  6  '-x-y-z, y, z'
  7  'x+y, z, -y'
  8  '-x-y, -z, y'
  9  '-x+1/2, -z, -y'
  10  'x+1/2, z, y'
  11  '-x-z+1/2, -y, z'
  12  'x+z+1/2, y, -z'
  13  '-x-y-z+1/2, z, y'
  14  'x+y+z+1/2, -z, -y'
  15  '-x-y+1/2, y, -z'
  16  'x+y+1/2, -y, z'
loop_
 _atom_site_type_symbol
 _atom_site_label
 _atom_site_symmetry_multiplicity
 _atom_site_fract_x
 _atom_site_fract_y
 _atom_site_fract_z
 _atom_site_occupancy
  Si  Si0  4  0.16799700  0.16400600  0.50000000  1.0
  Si  Si1  2  0.25000000  0.00000000  0.00000000  1.0
  W  W2  8  0.07503500  0.70098100  0.14894900  1.0
  W  W3  2  0.25000000  0.50000000  0.50000000  1.0
