# generated using pymatgen
data_Zr5Si3
_symmetry_space_group_name_H-M   Pm
_cell_length_a   3.72333500
_cell_length_b   6.46114600
_cell_length_c   7.15662636
_cell_angle_alpha   92.40492474
_cell_angle_beta   90.00000000
_cell_angle_gamma   90.00000000
_symmetry_Int_Tables_number   6
_chemical_formula_structural   Zr5Si3
_chemical_formula_sum   'Zr5 Si3'
_cell_volume   172.01539930
_cell_formula_units_Z   1
loop_
 _symmetry_equiv_pos_site_id
 _symmetry_equiv_pos_as_xyz
  1  'x, y, z'
  2  '-x, y, z'
loop_
 _atom_site_type_symbol
 _atom_site_label
 _atom_site_symmetry_multiplicity
 _atom_site_fract_x
 _atom_site_fract_y
 _atom_site_fract_z
 _atom_site_occupancy
  Zr  Zr0  1  0.00000000  0.45625700  0.48435800  1.0
  Zr  Zr1  1  0.50000000  0.16344300  0.70897300  1.0
  Zr  Zr2  1  0.50000000  0.31033300  0.13904500  1.0
  Zr  Zr3  1  0.50000000  0.70799100  0.83768000  1.0
  Zr  Zr4  1  0.50000000  0.85245800  0.33239400  1.0
  Si  Si5  1  0.00000000  0.40004400  0.86825300  1.0
  Si  Si6  1  0.00000000  0.63083900  0.13350000  1.0
  Si  Si7  1  0.00000000  0.86863500  0.60579900  1.0
