# generated using pymatgen
data_Sn1.26W6O18
_symmetry_space_group_name_H-M   Cmcm
_cell_length_a   7.53553200
_cell_length_b   7.54390269
_cell_length_c   7.64511700
_cell_angle_alpha   90.00000000
_cell_angle_beta   90.00000000
_cell_angle_gamma   119.96330161
_symmetry_Int_Tables_number   63
_chemical_formula_structural   Sn1.26W6O18
_chemical_formula_sum   'Sn1.26 W6 O18'
_cell_volume   376.51756921
_cell_formula_units_Z   1
loop_
 _symmetry_equiv_pos_site_id
 _symmetry_equiv_pos_as_xyz
  1  'x, y, z'
  2  '-x, -y, -z'
  3  '-x, -y, z+1/2'
  4  'x, y, -z+1/2'
  5  '-x+y, y, -z'
  6  'x-y, -y, z'
  7  'x-y, -y, -z+1/2'
  8  '-x+y, y, z+1/2'
loop_
 _atom_site_type_symbol
 _atom_site_label
 _atom_site_symmetry_multiplicity
 _atom_site_fract_x
 _atom_site_fract_y
 _atom_site_fract_z
 _atom_site_occupancy
  Sn  Sn0  2  0.05935400  0.00000000  0.25000000  0.63
  W  W1  4  0.00607100  0.49917200  0.25000000  1.0
  W  W2  2  0.48773600  0.00000000  0.75000000  1.0
  O  O3  4  0.00000000  0.50000000  0.00000000  1.0
  O  O4  4  0.19866900  0.80198900  0.25000000  1.0
  O  O5  4  0.21132300  0.42609000  0.25000000  1.0
  O  O6  4  0.21795700  0.78164900  0.75000000  1.0
  O  O7  2  0.50000000  0.00000000  0.00000000  1.0
