# generated using pymatgen
data_Sn
_symmetry_space_group_name_H-M   C2/m
_cell_length_a   3.23320493
_cell_length_b   3.36919246
_cell_length_c   3.36919246
_cell_angle_alpha   84.37911428
_cell_angle_beta   62.53401836
_cell_angle_gamma   62.53401836
_symmetry_Int_Tables_number   12
_chemical_formula_structural   Sn
_chemical_formula_sum   Sn1
_cell_volume   28.58548481
_cell_formula_units_Z   1
loop_
 _symmetry_equiv_pos_site_id
 _symmetry_equiv_pos_as_xyz
  1  'x, y, z'
  2  '-x, -y, -z'
  3  '-x, -z, -y'
  4  'x, z, y'
loop_
 _atom_site_type_symbol
 _atom_site_label
 _atom_site_symmetry_multiplicity
 _atom_site_fract_x
 _atom_site_fract_y
 _atom_site_fract_z
 _atom_site_occupancy
  Sn  Sn0  1  0.00000000  0.50000000  0.50000000  1.0
