# generated using pymatgen
data_SnO
_symmetry_space_group_name_H-M   P1
_cell_length_a   11.74936953
_cell_length_b   12.18052392
_cell_length_c   12.73501600
_cell_angle_alpha   91.11166369
_cell_angle_beta   91.98678067
_cell_angle_gamma   98.26715525
_symmetry_Int_Tables_number   1
_chemical_formula_structural   SnO
_chemical_formula_sum   'Sn40 O40'
_cell_volume   1801.98088465
_cell_formula_units_Z   40
loop_
 _symmetry_equiv_pos_site_id
 _symmetry_equiv_pos_as_xyz
  1  'x, y, z'
loop_
 _atom_site_type_symbol
 _atom_site_label
 _atom_site_symmetry_multiplicity
 _atom_site_fract_x
 _atom_site_fract_y
 _atom_site_fract_z
 _atom_site_occupancy
  Sn  Sn0  1  0.01467166  0.68564719  0.26810520  1.0
  Sn  Sn1  1  0.01818090  0.37166331  0.79711872  1.0
  Sn  Sn2  1  0.02275171  0.19002485  0.55673385  1.0
  Sn  Sn3  1  0.05144718  0.65728207  0.75646176  1.0
  Sn  Sn4  1  0.08595926  0.84454134  0.05461406  1.0
  Sn  Sn5  1  0.15358150  0.96259646  0.42983991  1.0
  Sn  Sn6  1  0.16900490  0.36380248  0.06812189  1.0
  Sn  Sn7  1  0.17358044  0.52265636  0.58890852  1.0
  Sn  Sn8  1  0.19487531  0.99960014  0.71608387  1.0
  Sn  Sn9  1  0.24982486  0.57138530  0.34487767  1.0
  Sn  Sn10  1  0.27404770  0.12067431  0.15084449  1.0
  Sn  Sn11  1  0.28882822  0.66314126  0.05087733  1.0
  Sn  Sn12  1  0.30115768  0.26315493  0.53409370  1.0
  Sn  Sn13  1  0.30577143  0.47218905  0.80790365  1.0
  Sn  Sn14  1  0.32942108  0.84401419  0.25818369  1.0
  Sn  Sn15  1  0.33847267  0.92980727  0.93303200  1.0
  Sn  Sn16  1  0.37833851  0.76619460  0.69861831  1.0
  Sn  Sn17  1  0.40232912  0.00743540  0.54767713  1.0
  Sn  Sn18  1  0.40746677  0.18248291  0.84308020  1.0
  Sn  Sn19  1  0.43685565  0.41651442  0.17753825  1.0
  Sn  Sn20  1  0.49659885  0.09920628  0.31165622  1.0
  Sn  Sn21  1  0.52800628  0.70115407  0.93352657  1.0
  Sn  Sn22  1  0.53738847  0.43129355  0.91719710  1.0
  Sn  Sn23  1  0.58754259  0.80218402  0.34272036  1.0
  Sn  Sn24  1  0.59409519  0.52817470  0.45090032  1.0
  Sn  Sn25  1  0.64846511  0.00169299  0.94854330  1.0
  Sn  Sn26  1  0.66948094  0.91601645  0.69256757  1.0
  Sn  Sn27  1  0.68354305  0.24419261  0.15961788  1.0
  Sn  Sn28  1  0.71102897  0.61935363  0.14483459  1.0
  Sn  Sn29  1  0.71447265  0.64162141  0.66731010  1.0
  Sn  Sn30  1  0.73315024  0.15510373  0.47714625  1.0
  Sn  Sn31  1  0.74630304  0.24889086  0.78159240  1.0
  Sn  Sn32  1  0.80648960  0.75794443  0.89371623  1.0
  Sn  Sn33  1  0.89641099  0.91829538  0.55575122  1.0
  Sn  Sn34  1  0.90304215  0.62441372  0.47717952  1.0
  Sn  Sn35  1  0.91415615  0.41617984  0.29527841  1.0
  Sn  Sn36  1  0.91818731  0.19639707  0.03881375  1.0
  Sn  Sn37  1  0.96201390  0.53839329  0.01355190  1.0
  Sn  Sn38  1  0.97095348  0.01683384  0.83097918  1.0
  Sn  Sn39  1  0.98842564  0.08749658  0.27337239  1.0
  O  O40  1  0.00557917  0.58041468  0.60022545  1.0
  O  O41  1  0.07137591  0.52758772  0.26479911  1.0
  O  O42  1  0.10552592  0.67843564  0.01274990  1.0
  O  O43  1  0.15132218  0.16697891  0.24617824  1.0
  O  O44  1  0.15305691  0.33919866  0.55980513  1.0
  O  O45  1  0.17120718  0.39473546  0.90216548  1.0
  O  O46  1  0.17281880  0.12803603  0.49876642  1.0
  O  O47  1  0.19064017  0.72555060  0.33502794  1.0
  O  O48  1  0.23524332  0.91785299  0.57065941  1.0
  O  O49  1  0.26035095  0.06775934  0.87641618  1.0
  O  O50  1  0.28161216  0.87634768  0.77813011  1.0
  O  O51  1  0.29706388  0.50114006  0.10855162  1.0
  O  O52  1  0.32235321  0.28364192  0.09261012  1.0
  O  O53  1  0.33215534  0.97766714  0.39297258  1.0
  O  O54  1  0.34151341  0.62107901  0.89916632  1.0
  O  O55  1  0.34806860  0.11337048  0.66251227  1.0
  O  O56  1  0.42274624  0.72093090  0.31923998  1.0
  O  O57  1  0.48467349  0.05497173  0.92444515  1.0
  O  O58  1  0.48823596  0.90056126  0.61960443  1.0
  O  O59  1  0.49450291  0.81616097  0.82578441  1.0
  O  O60  1  0.51882856  0.93354065  0.27942444  1.0
  O  O61  1  0.52840112  0.11021172  0.47739780  1.0
  O  O62  1  0.55989908  0.61102834  0.58113066  1.0
  O  O63  1  0.58358833  0.48298544  0.08028837  1.0
  O  O64  1  0.59762890  0.58093600  0.84581425  1.0
  O  O65  1  0.63332707  0.31091008  0.87676956  1.0
  O  O66  1  0.67792732  0.15266536  0.31104682  1.0
  O  O67  1  0.69818814  0.06653208  0.79858007  1.0
  O  O68  1  0.73755734  0.13555355  0.04424652  1.0
  O  O69  1  0.73871876  0.98623178  0.54326257  1.0
  O  O70  1  0.75537873  0.52518495  0.52291941  1.0
  O  O71  1  0.82636993  0.74798794  0.54995477  1.0
  O  O72  1  0.83276271  0.64903759  0.01754122  1.0
  O  O73  1  0.83596018  0.54363644  0.22433506  1.0
  O  O74  1  0.86453469  0.30122198  0.16446139  1.0
  O  O75  1  0.87650980  0.91823890  0.71803000  1.0
  O  O76  1  0.89390394  0.28494299  0.89907208  1.0
  O  O77  1  0.94283692  0.16930465  0.40682337  1.0
  O  O78  1  0.96563592  0.52597812  0.84406946  1.0
  O  O79  1  0.96724569  0.86948997  0.93167247  1.0
