# generated using pymatgen
data_SnO
_symmetry_space_group_name_H-M   P2/m
_cell_length_a   3.05179805
_cell_length_b   5.85391100
_cell_length_c   7.19130319
_cell_angle_alpha   90.00000000
_cell_angle_beta   90.11751485
_cell_angle_gamma   90.00000000
_symmetry_Int_Tables_number   10
_chemical_formula_structural   SnO
_chemical_formula_sum   'Sn3 O3'
_cell_volume   128.47203172
_cell_formula_units_Z   3
loop_
 _symmetry_equiv_pos_site_id
 _symmetry_equiv_pos_as_xyz
  1  'x, y, z'
  2  '-x, -y, -z'
  3  '-x, y, -z'
  4  'x, -y, z'
loop_
 _atom_site_type_symbol
 _atom_site_label
 _atom_site_symmetry_multiplicity
 _atom_site_fract_x
 _atom_site_fract_y
 _atom_site_fract_z
 _atom_site_occupancy
  Sn  Sn0  2  0.48296400  0.50000000  0.79949600  1.0
  Sn  Sn1  1  0.00000000  0.00000000  0.50000000  1.0
  O  O2  4  0.01658100  0.27434900  0.27997850  0.75
