# generated using pymatgen
data_SnO
_symmetry_space_group_name_H-M   P1
_cell_length_a   12.06359624
_cell_length_b   12.21537064
_cell_length_c   12.24474111
_cell_angle_alpha   96.56153426
_cell_angle_beta   91.59955263
_cell_angle_gamma   94.26192711
_symmetry_Int_Tables_number   1
_chemical_formula_structural   SnO
_chemical_formula_sum   'Sn40 O40'
_cell_volume   1786.41724123
_cell_formula_units_Z   40
loop_
 _symmetry_equiv_pos_site_id
 _symmetry_equiv_pos_as_xyz
  1  'x, y, z'
loop_
 _atom_site_type_symbol
 _atom_site_label
 _atom_site_symmetry_multiplicity
 _atom_site_fract_x
 _atom_site_fract_y
 _atom_site_fract_z
 _atom_site_occupancy
  Sn  Sn0  1  0.00371146  0.67093986  0.76546452  1.0
  Sn  Sn1  1  0.03117117  0.39156161  0.74903523  1.0
  Sn  Sn2  1  0.04779038  0.15169381  0.56063435  1.0
  Sn  Sn3  1  0.06292224  0.93612227  0.03889526  1.0
  Sn  Sn4  1  0.15306341  0.58804779  0.38356639  1.0
  Sn  Sn5  1  0.15922628  0.39394827  0.10122400  1.0
  Sn  Sn6  1  0.19886546  0.58330534  0.62113050  1.0
  Sn  Sn7  1  0.20132558  0.96843788  0.41494528  1.0
  Sn  Sn8  1  0.21151658  0.98899562  0.73675525  1.0
  Sn  Sn9  1  0.23563886  0.60406100  0.94530793  1.0
  Sn  Sn10  1  0.24421958  0.14950248  0.19822853  1.0
  Sn  Sn11  1  0.26180474  0.78675781  0.18754935  1.0
  Sn  Sn12  1  0.27648125  0.31700945  0.52773915  1.0
  Sn  Sn13  1  0.35163036  0.43645115  0.76386616  1.0
  Sn  Sn14  1  0.35438491  0.91234521  0.95117067  1.0
  Sn  Sn15  1  0.39938569  0.16730438  0.88645622  1.0
  Sn  Sn16  1  0.40999079  0.76066821  0.67989350  1.0
  Sn  Sn17  1  0.41769768  0.45591844  0.18330702  1.0
  Sn  Sn18  1  0.41931116  0.02029381  0.56839285  1.0
  Sn  Sn19  1  0.51044729  0.09225333  0.32040741  1.0
  Sn  Sn20  1  0.51519577  0.81075322  0.33686830  1.0
  Sn  Sn21  1  0.53881328  0.68895801  0.92866619  1.0
  Sn  Sn22  1  0.54607255  0.42175314  0.90917854  1.0
  Sn  Sn23  1  0.60086124  0.49640698  0.44583185  1.0
  Sn  Sn24  1  0.65394256  0.99388276  0.96692399  1.0
  Sn  Sn25  1  0.65966844  0.62525094  0.18202738  1.0
  Sn  Sn26  1  0.67396120  0.89671693  0.68973825  1.0
  Sn  Sn27  1  0.69638067  0.25951814  0.19471320  1.0
  Sn  Sn28  1  0.71802205  0.14505588  0.50686758  1.0
  Sn  Sn29  1  0.73598286  0.63438844  0.65481654  1.0
  Sn  Sn30  1  0.75064589  0.22084386  0.79510352  1.0
  Sn  Sn31  1  0.83460374  0.77305221  0.93933454  1.0
  Sn  Sn32  1  0.88087842  0.88035957  0.50750267  1.0
  Sn  Sn33  1  0.88436837  0.58174755  0.42921897  1.0
  Sn  Sn34  1  0.91076718  0.19186816  0.04141945  1.0
  Sn  Sn35  1  0.93161440  0.47423934  0.01060822  1.0
  Sn  Sn36  1  0.93902877  0.67984434  0.18383445  1.0
  Sn  Sn37  1  0.96022081  0.02162802  0.77424483  1.0
  Sn  Sn38  1  0.96836353  0.06468453  0.27995916  1.0
  Sn  Sn39  1  0.98895700  0.33476009  0.33580582  1.0
  O  O40  1  0.02529317  0.52715410  0.65072884  1.0
  O  O41  1  0.08573762  0.19946280  0.24888480  1.0
  O  O42  1  0.12010279  0.31450727  0.59726332  1.0
  O  O43  1  0.12663842  0.45111813  0.26512298  1.0
  O  O44  1  0.19604695  0.45021642  0.83884054  1.0
  O  O45  1  0.20108511  0.13975482  0.47465213  1.0
  O  O46  1  0.25816385  0.93289755  0.56975585  1.0
  O  O47  1  0.25925317  0.68208912  0.30746006  1.0
  O  O48  1  0.26252447  0.04911664  0.91701216  1.0
  O  O49  1  0.29072746  0.30021464  0.14310051  1.0
  O  O50  1  0.29411556  0.50563330  0.07167369  1.0
  O  O51  1  0.30768772  0.86515174  0.78221422  1.0
  O  O52  1  0.35957475  0.09835098  0.71230425  1.0
  O  O53  1  0.37435791  0.97599836  0.40070576  1.0
  O  O54  1  0.37890215  0.60320952  0.85157708  1.0
  O  O55  1  0.42688581  0.80089510  0.18836911  1.0
  O  O56  1  0.48817026  0.03924709  0.94878515  1.0
  O  O57  1  0.50744035  0.90312259  0.62268177  1.0
  O  O58  1  0.53178128  0.79139289  0.80616456  1.0
  O  O59  1  0.53335150  0.12561717  0.50551815  1.0
  O  O60  1  0.55967834  0.46651633  0.08048896  1.0
  O  O61  1  0.57705899  0.59676001  0.58381212  1.0
  O  O62  1  0.59748297  0.95613475  0.31581674  1.0
  O  O63  1  0.61478100  0.27698172  0.87154679  1.0
  O  O64  1  0.63107147  0.55748066  0.86059412  1.0
  O  O65  1  0.68363829  0.17521180  0.33821469  1.0
  O  O66  1  0.69501309  0.04451106  0.80966708  1.0
  O  O67  1  0.74046849  0.13650183  0.05929182  1.0
  O  O68  1  0.74565397  0.97698075  0.55429716  1.0
  O  O69  1  0.76272550  0.49334629  0.50860326  1.0
  O  O70  1  0.78969237  0.68581147  0.08972858  1.0
  O  O71  1  0.80158458  0.58417995  0.27443696  1.0
  O  O72  1  0.81017253  0.71607002  0.51355899  1.0
  O  O73  1  0.86558815  0.31915679  0.94865424  1.0
  O  O74  1  0.87709042  0.28234685  0.19734372  1.0
  O  O75  1  0.93321234  0.87866631  0.66987288  1.0
  O  O76  1  0.94180152  0.93361228  0.91638854  1.0
  O  O77  1  0.94472892  0.16950748  0.41833993  1.0
  O  O78  1  0.98027112  0.53543278  0.87034144  1.0
  O  O79  1  0.98179502  0.78139479  0.04767901  1.0
