# generated using pymatgen
data_SnO
_symmetry_space_group_name_H-M   P1
_cell_length_a   11.71742890
_cell_length_b   11.74637383
_cell_length_c   12.83885385
_cell_angle_alpha   91.67503560
_cell_angle_beta   90.95496041
_cell_angle_gamma   92.05166865
_symmetry_Int_Tables_number   1
_chemical_formula_structural   SnO
_chemical_formula_sum   'Sn40 O40'
_cell_volume   1764.94023027
_cell_formula_units_Z   40
loop_
 _symmetry_equiv_pos_site_id
 _symmetry_equiv_pos_as_xyz
  1  'x, y, z'
loop_
 _atom_site_type_symbol
 _atom_site_label
 _atom_site_symmetry_multiplicity
 _atom_site_fract_x
 _atom_site_fract_y
 _atom_site_fract_z
 _atom_site_occupancy
  Sn  Sn0  1  0.01001690  0.34311035  0.03450311  1.0
  Sn  Sn1  1  0.06738427  0.81881048  0.56727701  1.0
  Sn  Sn2  1  0.08168821  0.62931379  0.04756141  1.0
  Sn  Sn3  1  0.11116555  0.13055560  0.46282260  1.0
  Sn  Sn4  1  0.11851460  0.95194251  0.96540590  1.0
  Sn  Sn5  1  0.12787126  0.34321353  0.30342497  1.0
  Sn  Sn6  1  0.15571124  0.72425651  0.79075809  1.0
  Sn  Sn7  1  0.16921707  0.47663309  0.63577534  1.0
  Sn  Sn8  1  0.23607625  0.61887340  0.29056541  1.0
  Sn  Sn9  1  0.25103331  0.21066111  0.06964823  1.0
  Sn  Sn10  1  0.30467301  0.05747349  0.76867828  1.0
  Sn  Sn11  1  0.30859499  0.94812791  0.23640330  1.0
  Sn  Sn12  1  0.32162972  0.47369456  0.06016923  1.0
  Sn  Sn13  1  0.32610161  0.73559312  0.96644378  1.0
  Sn  Sn14  1  0.38056203  0.32704330  0.83162620  1.0
  Sn  Sn15  1  0.39489205  0.28031689  0.33243990  1.0
  Sn  Sn16  1  0.40059231  0.08539787  0.52436320  1.0
  Sn  Sn17  1  0.41325580  0.78652479  0.66075615  1.0
  Sn  Sn18  1  0.46595067  0.38441265  0.56162942  1.0
  Sn  Sn19  1  0.47833432  0.82457219  0.41888361  1.0
  Sn  Sn20  1  0.50823541  0.07078314  0.00046746  1.0
  Sn  Sn21  1  0.52729120  0.67986393  0.20190304  1.0
  Sn  Sn22  1  0.58890392  0.05915209  0.73372600  1.0
  Sn  Sn23  1  0.59207568  0.56360842  0.82652159  1.0
  Sn  Sn24  1  0.60304179  0.82880327  0.94648249  1.0
  Sn  Sn25  1  0.60609063  0.44091182  0.07938010  1.0
  Sn  Sn26  1  0.61197474  0.97018339  0.21203662  1.0
  Sn  Sn27  1  0.73631035  0.66788391  0.43497227  1.0
  Sn  Sn28  1  0.74444826  0.31484589  0.85717399  1.0
  Sn  Sn29  1  0.77286972  0.22126468  0.53994189  1.0
  Sn  Sn30  1  0.80853939  0.27349150  0.27102143  1.0
  Sn  Sn31  1  0.80970255  0.62389225  0.10603398  1.0
  Sn  Sn32  1  0.81158911  0.94305788  0.44533279  1.0
  Sn  Sn33  1  0.81512830  0.06506780  0.97935702  1.0
  Sn  Sn34  1  0.86570956  0.48964836  0.67362360  1.0
  Sn  Sn35  1  0.86924836  0.75717276  0.87051208  1.0
  Sn  Sn36  1  0.98829471  0.60111454  0.44358415  1.0
  Sn  Sn37  1  0.99342243  0.80492813  0.27780122  1.0
  Sn  Sn38  1  0.99503547  0.08125320  0.20933620  1.0
  Sn  Sn39  1  0.99886823  0.04904939  0.66316858  1.0
  O  O40  1  0.01280273  0.40566737  0.66305374  1.0
  O  O41  1  0.01884297  0.26181107  0.41344244  1.0
  O  O42  1  0.05314522  0.64233883  0.59146608  1.0
  O  O43  1  0.09107428  0.75729133  0.41320036  1.0
  O  O44  1  0.10343236  0.50814219  0.36991532  1.0
  O  O45  1  0.10577547  0.70044302  0.19967911  1.0
  O  O46  1  0.11658069  0.08148417  0.08415167  1.0
  O  O47  1  0.13395328  0.06337946  0.31234230  1.0
  O  O48  1  0.19948912  0.56214441  0.77500921  1.0
  O  O49  1  0.20040575  0.48595345  0.17632094  1.0
  O  O50  1  0.23367592  0.80104525  0.65155887  1.0
  O  O51  1  0.26344875  0.89187493  0.03347732  1.0
  O  O52  1  0.27691174  0.19710607  0.46990191  1.0
  O  O53  1  0.29315614  0.17918347  0.91412996  1.0
  O  O54  1  0.37211485  0.65522572  0.10638900  1.0
  O  O55  1  0.41282196  0.98928925  0.38337430  1.0
  O  O56  1  0.41513501  0.43058128  0.41902627  1.0
  O  O57  1  0.43766805  0.93723339  0.76502970  1.0
  O  O58  1  0.44939199  0.02572421  0.15658595  1.0
  O  O59  1  0.45141597  0.17319167  0.76019930  1.0
  O  O60  1  0.45186224  0.40491931  0.14586833  1.0
  O  O61  1  0.49098599  0.68358797  0.90743460  1.0
  O  O62  1  0.50974123  0.22601494  0.49083589  1.0
  O  O63  1  0.53338027  0.39806941  0.91011479  1.0
  O  O64  1  0.59979006  0.81477984  0.11268305  1.0
  O  O65  1  0.65630701  0.85323459  0.45281162  1.0
  O  O66  1  0.66990555  0.06445691  0.08074314  1.0
  O  O67  1  0.68771361  0.13853010  0.86661083  1.0
  O  O68  1  0.70338720  0.33544348  0.16633978  1.0
  O  O69  1  0.71515266  0.67284596  0.92323215  1.0
  O  O70  1  0.76843589  0.89798669  0.90075834  1.0
  O  O71  1  0.77700698  0.31453110  0.67651627  1.0
  O  O72  1  0.83787050  0.05593843  0.58879513  1.0
  O  O73  1  0.84593862  0.52658699  0.50387704  1.0
  O  O74  1  0.87122892  0.78579298  0.50340720  1.0
  O  O75  1  0.87283351  0.25848483  0.96117810  1.0
  O  O76  1  0.88714246  0.65578076  0.31926090  1.0
  O  O77  1  0.93458899  0.73710818  0.02909108  1.0
  O  O78  1  0.94479569  0.50737504  0.06712573  1.0
  O  O79  1  0.98190736  0.29037145  0.19397668  1.0
