# generated using pymatgen
data_SnO
_symmetry_space_group_name_H-M   P4/nmm
_cell_length_a   3.87120320
_cell_length_b   3.87120320
_cell_length_c   5.11098000
_cell_angle_alpha   90.00000000
_cell_angle_beta   90.00000000
_cell_angle_gamma   89.98149692
_symmetry_Int_Tables_number   129
_chemical_formula_structural   SnO
_chemical_formula_sum   'Sn2 O2'
_cell_volume   76.59423714
_cell_formula_units_Z   2
loop_
 _symmetry_equiv_pos_site_id
 _symmetry_equiv_pos_as_xyz
  1  'x, y, z'
  2  '-y+1/2, x, z'
  3  '-x+1/2, -y+1/2, z'
  4  'y, -x+1/2, z'
  5  'x+1/2, -y, -z'
  6  '-y, -x, -z'
  7  '-x, y+1/2, -z'
  8  'y+1/2, x+1/2, -z'
  9  '-x, -y, -z'
  10  'y+1/2, -x, -z'
  11  'x+1/2, y+1/2, -z'
  12  '-y, x+1/2, -z'
  13  '-x+1/2, y, z'
  14  'y, x, z'
  15  'x, -y+1/2, z'
  16  '-y+1/2, -x+1/2, z'
loop_
 _atom_site_type_symbol
 _atom_site_label
 _atom_site_symmetry_multiplicity
 _atom_site_fract_x
 _atom_site_fract_y
 _atom_site_fract_z
 _atom_site_occupancy
  Sn  Sn0  2  0.25000000  0.25000000  0.27228400  1.0
  O  O1  2  0.25000000  0.75000000  0.50000000  1.0
