# generated using pymatgen
data_SnO
_symmetry_space_group_name_H-M   P4/mnc
_cell_length_a   7.40823300
_cell_length_b   8.64405300
_cell_length_c   8.64405300
_cell_angle_alpha   90.00000000
_cell_angle_beta   90.00000000
_cell_angle_gamma   90.00000000
_symmetry_Int_Tables_number   128
_chemical_formula_structural   SnO
_chemical_formula_sum   'Sn12 O12'
_cell_volume   553.54059367
_cell_formula_units_Z   12
loop_
 _symmetry_equiv_pos_site_id
 _symmetry_equiv_pos_as_xyz
  1  'x, y, z'
  2  '-x, -y, -z'
  3  'x, -z, y'
  4  '-x, z, -y'
  5  'x, -y, -z'
  6  '-x, y, z'
  7  'x, z, -y'
  8  '-x, -z, y'
  9  '-x+1/2, y+1/2, -z+1/2'
  10  'x+1/2, -y+1/2, z+1/2'
  11  '-x+1/2, -z+1/2, -y+1/2'
  12  'x+1/2, z+1/2, y+1/2'
  13  '-x+1/2, -y+1/2, z+1/2'
  14  'x+1/2, y+1/2, -z+1/2'
  15  '-x+1/2, z+1/2, y+1/2'
  16  'x+1/2, -z+1/2, -y+1/2'
loop_
 _atom_site_type_symbol
 _atom_site_label
 _atom_site_symmetry_multiplicity
 _atom_site_fract_x
 _atom_site_fract_y
 _atom_site_fract_z
 _atom_site_occupancy
  Sn  Sn0  8  0.00000000  0.15621100  0.76364400  1.0
  Sn  Sn1  4  0.19235000  0.50000000  0.50000000  1.0
  O  O2  16  0.18106300  0.04254800  0.21375900  0.75
