# generated using pymatgen
data_SnO
_symmetry_space_group_name_H-M   P1
_cell_length_a   11.34094743
_cell_length_b   12.19680335
_cell_length_c   12.54310877
_cell_angle_alpha   93.16884710
_cell_angle_beta   91.72106470
_cell_angle_gamma   94.65281838
_symmetry_Int_Tables_number   1
_chemical_formula_structural   SnO
_chemical_formula_sum   'Sn40 O40'
_cell_volume   1725.60353782
_cell_formula_units_Z   40
loop_
 _symmetry_equiv_pos_site_id
 _symmetry_equiv_pos_as_xyz
  1  'x, y, z'
loop_
 _atom_site_type_symbol
 _atom_site_label
 _atom_site_symmetry_multiplicity
 _atom_site_fract_x
 _atom_site_fract_y
 _atom_site_fract_z
 _atom_site_occupancy
  Sn  Sn0  1  0.01592216  0.12564874  0.71455191  1.0
  Sn  Sn1  1  0.03733078  0.38865034  0.94191804  1.0
  Sn  Sn2  1  0.04195970  0.81190117  0.95992967  1.0
  Sn  Sn3  1  0.05601695  0.30338089  0.23839305  1.0
  Sn  Sn4  1  0.06673085  0.32294211  0.54946817  1.0
  Sn  Sn5  1  0.07764724  0.60379957  0.53864601  1.0
  Sn  Sn6  1  0.09907599  0.87676586  0.42416065  1.0
  Sn  Sn7  1  0.11116501  0.64763937  0.24865719  1.0
  Sn  Sn8  1  0.12001404  0.83488687  0.69440236  1.0
  Sn  Sn9  1  0.17331349  0.12851043  0.02565615  1.0
  Sn  Sn10  1  0.27119146  0.58514423  0.97171145  1.0
  Sn  Sn11  1  0.28869303  0.55958613  0.72692076  1.0
  Sn  Sn12  1  0.29651195  0.09094133  0.57858452  1.0
  Sn  Sn13  1  0.29685830  0.86431786  0.10788855  1.0
  Sn  Sn14  1  0.31286145  0.01413217  0.83066339  1.0
  Sn  Sn15  1  0.31688829  0.12797058  0.26563955  1.0
  Sn  Sn16  1  0.35622502  0.40575758  0.45317455  1.0
  Sn  Sn17  1  0.37307792  0.30795867  0.94879385  1.0
  Sn  Sn18  1  0.39784670  0.68347826  0.35163462  1.0
  Sn  Sn19  1  0.47225010  0.80548750  0.84635980  1.0
  Sn  Sn20  1  0.49046378  0.28165765  0.69330687  1.0
  Sn  Sn21  1  0.53918204  0.62353305  0.59431825  1.0
  Sn  Sn22  1  0.55180555  0.92108331  0.49804003  1.0
  Sn  Sn23  1  0.57794206  0.92244433  0.25385804  1.0
  Sn  Sn24  1  0.58155682  0.22327750  0.41753153  1.0
  Sn  Sn25  1  0.58795104  0.10718963  0.00644087  1.0
  Sn  Sn26  1  0.59222547  0.66632380  0.07386825  1.0
  Sn  Sn27  1  0.59234545  0.46121181  0.25568213  1.0
  Sn  Sn28  1  0.61805475  0.03070447  0.74206546  1.0
  Sn  Sn29  1  0.66000280  0.42515017  0.95216517  1.0
  Sn  Sn30  1  0.76558859  0.11559010  0.26557192  1.0
  Sn  Sn31  1  0.76901162  0.87135494  0.90738938  1.0
  Sn  Sn32  1  0.79171872  0.76005345  0.62404126  1.0
  Sn  Sn33  1  0.79398829  0.24924799  0.59752830  1.0
  Sn  Sn34  1  0.79553587  0.73806804  0.29063914  1.0
  Sn  Sn35  1  0.85642687  0.44468301  0.37406099  1.0
  Sn  Sn36  1  0.86476106  0.98894593  0.45075845  1.0
  Sn  Sn37  1  0.87981458  0.53194824  0.11884029  1.0
  Sn  Sn38  1  0.92943665  0.58240448  0.81784384  1.0
  Sn  Sn39  1  0.96715244  0.99308834  0.16574296  1.0
  O  O40  1  0.01554540  0.38468187  0.10308505  1.0
  O  O41  1  0.02652510  0.76562937  0.54943334  1.0
  O  O42  1  0.08290526  0.58235254  0.92818909  1.0
  O  O43  1  0.13715338  0.47517102  0.62565205  1.0
  O  O44  1  0.15069700  0.18667391  0.61172805  1.0
  O  O45  1  0.15866135  0.59133028  0.39907262  1.0
  O  O46  1  0.18492514  0.94450483  0.58492818  1.0
  O  O47  1  0.20078953  0.68669924  0.65750696  1.0
  O  O48  1  0.25401377  0.16968087  0.87545495  1.0
  O  O49  1  0.26761715  0.98323471  0.99325916  1.0
  O  O50  1  0.29565868  0.07140734  0.41876705  1.0
  O  O51  1  0.31563770  0.23392962  0.08359024  1.0
  O  O52  1  0.35150305  0.75077121  0.96819551  1.0
  O  O53  1  0.38578011  0.51579834  0.59584763  1.0
  O  O54  1  0.42428276  0.98280133  0.19213808  1.0
  O  O55  1  0.44739542  0.25266601  0.31134335  1.0
  O  O56  1  0.46122512  0.66497940  0.74600708  1.0
  O  O57  1  0.47211965  0.53645623  0.39473797  1.0
  O  O58  1  0.47836664  0.75326921  0.50045672  1.0
  O  O59  1  0.48750312  0.08208612  0.85569715  1.0
  O  O60  1  0.49744338  0.32378773  0.53362056  1.0
  O  O61  1  0.52654493  0.75754414  0.20705782  1.0
  O  O62  1  0.56096643  0.27365093  0.97599711  1.0
  O  O63  1  0.62001896  0.80107860  0.96963235  1.0
  O  O64  1  0.65534400  0.20680346  0.70522527  1.0
  O  O65  1  0.67845319  0.36910200  0.36960524  1.0
  O  O66  1  0.71523911  0.84484255  0.75318074  1.0
  O  O67  1  0.71539249  0.03133923  0.89118573  1.0
  O  O68  1  0.72768768  0.42672960  0.10862435  1.0
  O  O69  1  0.73156973  0.87959477  0.51976590  1.0
  O  O70  1  0.75393008  0.56693638  0.31462313  1.0
  O  O71  1  0.77196550  0.68534601  0.12416431  1.0
  O  O72  1  0.86807632  0.09238270  0.59329311  1.0
  O  O73  1  0.86953608  0.47128187  0.93795933  1.0
  O  O74  1  0.88113561  0.73486325  0.89451734  1.0
  O  O75  1  0.91129996  0.53171138  0.51553307  1.0
  O  O76  1  0.91684298  0.93243465  0.99589641  1.0
  O  O77  1  0.93936502  0.16262197  0.19900522  1.0
  O  O78  1  0.95759094  0.28563222  0.69220030  1.0
  O  O79  1  0.98058845  0.74178321  0.30431013  1.0
