# generated using pymatgen
data_Ti3Sn
_symmetry_space_group_name_H-M   P6_3/mmc
_cell_length_a   4.75622200
_cell_length_b   5.91218200
_cell_length_c   5.91218217
_cell_angle_alpha   60.00000095
_cell_angle_beta   90.00000000
_cell_angle_gamma   90.00000000
_symmetry_Int_Tables_number   194
_chemical_formula_structural   Ti3Sn
_chemical_formula_sum   'Ti6 Sn2'
_cell_volume   143.97542046
_cell_formula_units_Z   2
loop_
 _symmetry_equiv_pos_site_id
 _symmetry_equiv_pos_as_xyz
  1  'x, y, z'
  2  '-x, -y, -z'
  3  'x+1/2, -z, y+z'
  4  '-x+1/2, z, -y-z'
  5  'x, -y-z, y'
  6  '-x, y+z, -y'
  7  'x+1/2, -y, -z'
  8  '-x+1/2, y, z'
  9  'x, z, -y-z'
  10  '-x, -z, y+z'
  11  'x+1/2, y+z, -y'
  12  '-x+1/2, -y-z, y'
  13  '-x+1/2, y, -y-z'
  14  'x+1/2, -y, y+z'
  15  '-x, -z, -y'
  16  'x, z, y'
  17  '-x+1/2, -y-z, z'
  18  'x+1/2, y+z, -z'
  19  '-x, -y, y+z'
  20  'x, y, -y-z'
  21  '-x+1/2, z, y'
  22  'x+1/2, -z, -y'
  23  '-x, y+z, -z'
  24  'x, -y-z, z'
loop_
 _atom_site_type_symbol
 _atom_site_label
 _atom_site_symmetry_multiplicity
 _atom_site_fract_x
 _atom_site_fract_y
 _atom_site_fract_z
 _atom_site_occupancy
  Ti  Ti0  6  0.25000000  0.16425100  0.16425200  1.0
  Sn  Sn1  2  0.25000000  0.66666667  0.66666667  1.0
