# generated using pymatgen
data_Sn2O3
_symmetry_space_group_name_H-M   Pnnm
_cell_length_a   3.24089800
_cell_length_b   4.78800400
_cell_length_c   4.86658200
_cell_angle_alpha   90.00000000
_cell_angle_beta   90.00000000
_cell_angle_gamma   90.00000000
_symmetry_Int_Tables_number   58
_chemical_formula_structural   Sn2O3
_chemical_formula_sum   'Sn2 O3'
_cell_volume   75.51685812
_cell_formula_units_Z   1
loop_
 _symmetry_equiv_pos_site_id
 _symmetry_equiv_pos_as_xyz
  1  'x, y, z'
  2  '-x, -y, -z'
  3  'x, -y, -z'
  4  '-x, y, z'
  5  '-x+1/2, y+1/2, -z+1/2'
  6  'x+1/2, -y+1/2, z+1/2'
  7  '-x+1/2, -y+1/2, z+1/2'
  8  'x+1/2, y+1/2, -z+1/2'
loop_
 _atom_site_type_symbol
 _atom_site_label
 _atom_site_symmetry_multiplicity
 _atom_site_fract_x
 _atom_site_fract_y
 _atom_site_fract_z
 _atom_site_occupancy
  Sn  Sn0  2  0.00000000  0.00000000  0.00000000  1.0
  O  O1  4  0.00000000  0.29185500  0.32104200  0.75
