# generated using pymatgen
data_Sn2O3
_symmetry_space_group_name_H-M   Pbcn
_cell_length_a   4.79297800
_cell_length_b   5.31340700
_cell_length_c   5.83085000
_cell_angle_alpha   90.00000000
_cell_angle_beta   90.00000000
_cell_angle_gamma   90.00000000
_symmetry_Int_Tables_number   60
_chemical_formula_structural   Sn2O3
_chemical_formula_sum   'Sn4 O6'
_cell_volume   148.49450684
_cell_formula_units_Z   2
loop_
 _symmetry_equiv_pos_site_id
 _symmetry_equiv_pos_as_xyz
  1  'x, y, z'
  2  '-x, -y, -z'
  3  '-x+1/2, y+1/2, -z+1/2'
  4  'x+1/2, -y+1/2, z+1/2'
  5  'x+1/2, -y, -z+1/2'
  6  '-x+1/2, y, z+1/2'
  7  '-x, -y+1/2, z'
  8  'x, y+1/2, -z'
loop_
 _atom_site_type_symbol
 _atom_site_label
 _atom_site_symmetry_multiplicity
 _atom_site_fract_x
 _atom_site_fract_y
 _atom_site_fract_z
 _atom_site_occupancy
  Sn  Sn0  4  0.00000000  0.25000000  0.83490400  1.0
  O  O1  8  0.23016500  0.42175900  0.10703700  0.75
