# generated using pymatgen
data_Sn1O1.5
_symmetry_space_group_name_H-M   R-3m
_cell_length_a   3.25146913
_cell_length_b   3.25146913
_cell_length_c   4.83320600
_cell_angle_alpha   70.34427510
_cell_angle_beta   70.34427510
_cell_angle_gamma   59.99999722
_symmetry_Int_Tables_number   166
_chemical_formula_structural   Sn1O1.5
_chemical_formula_sum   'Sn1 O1.5'
_cell_volume   40.77701809
_cell_formula_units_Z   1
loop_
 _symmetry_equiv_pos_site_id
 _symmetry_equiv_pos_as_xyz
  1  'x, y, z'
  2  '-x+688/943, -y+688/943, -z+765/943'
  3  '-x-y-z, x, z'
  4  'x+y+z+688/943, -x+688/943, -z+765/943'
  5  'y, -x-y-z, z'
  6  '-y+688/943, x+y+z+688/943, -z+765/943'
  7  '-x+688/943, x+y+z+688/943, -z+765/943'
  8  'x, -x-y-z, z'
  9  'x+y+z+688/943, -y+688/943, -z+765/943'
  10  '-x-y-z, y, z'
  11  '-y+688/943, -x+688/943, -z+765/943'
  12  'y, x, z'
loop_
 _atom_site_type_symbol
 _atom_site_label
 _atom_site_symmetry_multiplicity
 _atom_site_fract_x
 _atom_site_fract_y
 _atom_site_fract_z
 _atom_site_occupancy
  Sn  Sn0  1  0.86479300  0.86479300  0.40562100  1.0
  O  O1  2  0.12322975  0.12322975  0.63031075  0.75
