# generated using pymatgen
data_Zr1.66666667Sn1
_symmetry_space_group_name_H-M   I4/mmm
_cell_length_a   3.73311765
_cell_length_b   3.73311765
_cell_length_c   5.54590762
_cell_angle_alpha   109.60052622
_cell_angle_beta   109.60052622
_cell_angle_gamma   90.18808745
_symmetry_Int_Tables_number   139
_chemical_formula_structural   Zr1.66666667Sn1
_chemical_formula_sum   'Zr1.66666667 Sn1'
_cell_volume   68.00453496
_cell_formula_units_Z   1
loop_
 _symmetry_equiv_pos_site_id
 _symmetry_equiv_pos_as_xyz
  1  'x, y, z'
  2  '-x, -y, -z'
  3  '-y+z+1/2, x+1/2, z'
  4  'y-z+1/2, -x+1/2, -z'
  5  '-x+z, -y+z, z'
  6  'x-z, y-z, -z'
  7  'y+1/2, -x+z+1/2, z'
  8  '-y+1/2, x-z+1/2, -z'
  9  'x-z, -y, -z'
  10  '-x+z, y, z'
  11  '-y+1/2, -x+1/2, -z'
  12  'y+1/2, x+1/2, z'
  13  '-x, y-z, -z'
  14  'x, -y+z, z'
  15  'y-z+1/2, x-z+1/2, -z'
  16  '-y+z+1/2, -x+z+1/2, z'
loop_
 _atom_site_type_symbol
 _atom_site_label
 _atom_site_symmetry_multiplicity
 _atom_site_fract_x
 _atom_site_fract_y
 _atom_site_fract_z
 _atom_site_occupancy
  Zr  Zr0  2  0.33675400  0.83675400  0.67350800  0.83333333335
  Sn  Sn1  1  0.00000000  0.50000000  0.00000000  1.0
