# generated using pymatgen
data_Sr
_symmetry_space_group_name_H-M   I4_1/amd
_cell_length_a   3.99898800
_cell_length_b   5.63626884
_cell_length_c   5.63626884
_cell_angle_alpha   82.77009507
_cell_angle_beta   69.22157637
_cell_angle_gamma   69.22157636
_symmetry_Int_Tables_number   141
_chemical_formula_structural   Sr
_chemical_formula_sum   Sr2
_cell_volume   111.05009795
_cell_formula_units_Z   2
loop_
 _symmetry_equiv_pos_site_id
 _symmetry_equiv_pos_as_xyz
  1  'x, y, z'
  2  'x+y+1/4, z+1/2, -y+1/2'
  3  'x+y+z, -y, -z'
  4  'x+z+1/4, -z+1/2, y+1/2'
  5  '-x-y-z+1/4, z+1/2, y+1/2'
  6  '-x-z, -y, z'
  7  '-x+1/4, -z+1/2, -y+1/2'
  8  '-x-y, y, -z'
  9  '-x+1/4, -y+1/2, -z+1/2'
  10  '-x-y, -z, y'
  11  '-x-y-z+1/4, y+1/2, z+1/2'
  12  '-x-z, z, -y'
  13  'x+y+z, -z, -y'
  14  'x+z+1/4, y+1/2, -z+1/2'
  15  'x, z, y'
  16  'x+y+1/4, -y+1/2, z+1/2'
loop_
 _atom_site_type_symbol
 _atom_site_label
 _atom_site_symmetry_multiplicity
 _atom_site_fract_x
 _atom_site_fract_y
 _atom_site_fract_z
 _atom_site_occupancy
  Sr  Sr0  2  0.00000000  0.00000000  0.00000000  1.0
