# generated using pymatgen
data_SrTiO3
_symmetry_space_group_name_H-M   I4/mcm
_cell_length_a   5.56772800
_cell_length_b   5.57946045
_cell_length_c   5.56772800
_cell_angle_alpha   119.93046454
_cell_angle_beta   90.00000000
_cell_angle_gamma   119.93046454
_symmetry_Int_Tables_number   140
_chemical_formula_structural   SrTiO3
_chemical_formula_sum   'Sr2 Ti2 O6'
_cell_volume   122.55854223
_cell_formula_units_Z   2
loop_
 _symmetry_equiv_pos_site_id
 _symmetry_equiv_pos_as_xyz
  1  'x, y, z'
  2  '-x, -y, -z'
  3  'y-z, y, x'
  4  '-y+z, -y, -x'
  5  '-x+y, y, y-z'
  6  'x-y, -y, -y+z'
  7  'z, y, -x+y'
  8  '-z, -y, x-y'
  9  'x-y+1/2, -y, -z+1/2'
  10  '-x+y+1/2, y, z+1/2'
  11  '-z+1/2, -y, -x+1/2'
  12  'z+1/2, y, x+1/2'
  13  '-x+1/2, -y, -y+z+1/2'
  14  'x+1/2, y, y-z+1/2'
  15  '-y+z+1/2, -y, x-y+1/2'
  16  'y-z+1/2, y, -x+y+1/2'
loop_
 _atom_site_type_symbol
 _atom_site_label
 _atom_site_symmetry_multiplicity
 _atom_site_fract_x
 _atom_site_fract_y
 _atom_site_fract_z
 _atom_site_occupancy
  Sr  Sr0  2  0.25000000  0.50000000  0.75000000  1.0
  Ti  Ti1  2  0.00000000  0.00000000  0.00000000  1.0
  O  O2  4  0.22906700  0.00000100  0.27093400  1.0
  O  O3  2  0.25000000  0.50000000  0.25000000  1.0
