# generated using pymatgen
data_Sr1.66666667Ti1.66666667O5
_symmetry_space_group_name_H-M   Cmmm
_cell_length_a   3.94003700
_cell_length_b   5.57437512
_cell_length_c   5.57437512
_cell_angle_alpha   90.98273954
_cell_angle_beta   90.00000000
_cell_angle_gamma   90.00000000
_symmetry_Int_Tables_number   65
_chemical_formula_structural   Sr1.66666667Ti1.66666667O5
_chemical_formula_sum   'Sr1.66666667 Ti1.66666667 O5'
_cell_volume   122.41335341
_cell_formula_units_Z   1
loop_
 _symmetry_equiv_pos_site_id
 _symmetry_equiv_pos_as_xyz
  1  'x, y, z'
  2  '-x, -y, -z'
  3  'x, -y, -z'
  4  '-x, y, z'
  5  '-x, z, y'
  6  'x, -z, -y'
  7  '-x, -z, -y'
  8  'x, z, y'
loop_
 _atom_site_type_symbol
 _atom_site_label
 _atom_site_symmetry_multiplicity
 _atom_site_fract_x
 _atom_site_fract_y
 _atom_site_fract_z
 _atom_site_occupancy
  Sr  Sr0  2  0.00000000  0.24649600  0.75350400  0.83333333335
  Ti  Ti1  2  0.50000000  0.24960100  0.24960100  0.83333333335
  O  O2  2  0.00000000  0.27480300  0.27480300  1.0
  O  O3  2  0.50000000  0.00000000  0.50000000  1.0
  O  O4  1  0.50000000  0.00000000  0.00000000  1.0
