# generated using pymatgen
data_Sr20V15O49
_symmetry_space_group_name_H-M   I4
_cell_length_a   8.77375600
_cell_length_b   8.77375600
_cell_length_c   15.47747799
_cell_angle_alpha   106.46539714
_cell_angle_beta   106.46539714
_cell_angle_gamma   89.99999999
_symmetry_Int_Tables_number   79
_chemical_formula_structural   Sr20V15O49
_chemical_formula_sum   'Sr20 V15 O49'
_cell_volume   1091.53359264
_cell_formula_units_Z   1
loop_
 _symmetry_equiv_pos_site_id
 _symmetry_equiv_pos_as_xyz
  1  'x, y, z'
  2  '-y+z, x, z'
  3  '-x+z, -y+z, z'
  4  'y, -x+z, z'
loop_
 _atom_site_type_symbol
 _atom_site_label
 _atom_site_symmetry_multiplicity
 _atom_site_fract_x
 _atom_site_fract_y
 _atom_site_fract_z
 _atom_site_occupancy
  Sr  Sr0  4  0.03333800  0.24177500  0.86183200  1.0
  Sr  Sr1  4  0.09824800  0.69682000  0.59417600  1.0
  Sr  Sr2  4  0.09924100  0.89359200  0.40452600  1.0
  Sr  Sr3  4  0.17208300  0.37786800  0.13639600  1.0
  Sr  Sr4  1  0.30009500  0.30009500  0.60019000  1.0
  Sr  Sr5  1  0.43274300  0.43274300  0.86548600  1.0
  Sr  Sr6  1  0.56773700  0.56773700  0.13547400  1.0
  Sr  Sr7  1  0.70226900  0.70226900  0.40453800  1.0
  V  V8  4  0.05932200  0.46212400  0.71921000  1.0
  V  V9  4  0.20070900  0.59885100  0.99990500  1.0
  V  V10  4  0.33984600  0.74225900  0.27813100  1.0
  V  V11  1  0.14942700  0.14942700  0.29885400  1.0
  V  V12  1  0.85874100  0.85874100  0.71748200  1.0
  V  V13  1  0.99205400  0.99205400  0.98410800  1.0
  O  O14  4  0.01611000  0.60541900  0.41815900  1.0
  O  O15  4  0.03957600  0.32637700  0.26866400  1.0
  O  O16  4  0.06429900  0.96556000  0.72274800  1.0
  O  O17  4  0.09951100  0.81870200  0.01012600  1.0
  O  O18  4  0.12991600  0.54521100  0.86799700  1.0
  O  O19  4  0.16023700  0.27150500  0.72624500  1.0
  O  O20  4  0.18917100  0.99269800  0.57986700  1.0
  O  O21  4  0.26889400  0.66539000  0.13453200  1.0
  O  O22  4  0.29728400  0.40039000  0.99854600  1.0
  O  O23  4  0.44052900  0.53356200  0.27722300  1.0
  O  O24  2  0.00064800  0.50064800  0.00129600  1.0
  O  O25  2  0.13707900  0.63707900  0.27415800  1.0
  O  O26  2  0.36239200  0.86239200  0.72478400  1.0
  O  O27  1  0.21173100  0.21173100  0.42346200  1.0
  O  O28  1  0.78731100  0.78731100  0.57462200  1.0
  O  O29  1  0.93129800  0.93129800  0.86259600  1.0
