# generated using pymatgen
data_Ta
_symmetry_space_group_name_H-M   P-42_1m
_cell_length_a   5.34679500
_cell_length_b   10.24759500
_cell_length_c   10.24759500
_cell_angle_alpha   90.00000000
_cell_angle_beta   90.00000000
_cell_angle_gamma   90.00000000
_symmetry_Int_Tables_number   113
_chemical_formula_structural   Ta
_chemical_formula_sum   Ta30
_cell_volume   561.48407025
_cell_formula_units_Z   30
loop_
 _symmetry_equiv_pos_site_id
 _symmetry_equiv_pos_as_xyz
  1  'x, y, z'
  2  '-x, z, -y'
  3  'x, -y, -z'
  4  '-x, -z, y'
  5  '-x, -y+1/2, z+1/2'
  6  'x, -z+1/2, -y+1/2'
  7  '-x, y+1/2, -z+1/2'
  8  'x, z+1/2, y+1/2'
loop_
 _atom_site_type_symbol
 _atom_site_label
 _atom_site_symmetry_multiplicity
 _atom_site_fract_x
 _atom_site_fract_y
 _atom_site_fract_z
 _atom_site_occupancy
  Ta  Ta0  8  0.24333400  0.23867200  0.06737900  1.0
  Ta  Ta1  8  0.25710400  0.03477900  0.87111700  1.0
  Ta  Ta2  4  0.00236200  0.18101200  0.31898800  1.0
  Ta  Ta3  4  0.25948600  0.10481700  0.60481700  1.0
  Ta  Ta4  4  0.49927900  0.31871700  0.81871700  1.0
  Ta  Ta5  2  0.24276600  0.50000000  0.00000000  1.0
