# generated using pymatgen
data_TaTe2
_symmetry_space_group_name_H-M   C2/m
_cell_length_a   3.66743800
_cell_length_b   7.85799944
_cell_length_c   9.66651949
_cell_angle_alpha   112.09820004
_cell_angle_beta   90.00000000
_cell_angle_gamma   103.49479200
_symmetry_Int_Tables_number   12
_chemical_formula_structural   TaTe2
_chemical_formula_sum   'Ta3 Te6'
_cell_volume   249.79215635
_cell_formula_units_Z   3
loop_
 _symmetry_equiv_pos_site_id
 _symmetry_equiv_pos_as_xyz
  1  'x, y, z'
  2  '-x, -y, -z'
  3  'x-y, -y, -z'
  4  '-x+y, y, z'
loop_
 _atom_site_type_symbol
 _atom_site_label
 _atom_site_symmetry_multiplicity
 _atom_site_fract_x
 _atom_site_fract_y
 _atom_site_fract_z
 _atom_site_occupancy
  Ta  Ta0  2  0.36202100  0.72404200  0.71276500  1.0
  Ta  Ta1  1  0.00000000  0.00000000  0.00000000  1.0
  Te  Te2  2  0.00792200  0.01584400  0.30575900  1.0
  Te  Te3  2  0.29289000  0.58578000  0.38386800  1.0
  Te  Te4  2  0.35428000  0.70856000  0.98587600  1.0
