# generated using pymatgen
data_Te
_symmetry_space_group_name_H-M   C2/m
_cell_length_a   4.31285600
_cell_length_b   4.37819230
_cell_length_c   6.00456217
_cell_angle_alpha   90.68596397
_cell_angle_beta   90.00000000
_cell_angle_gamma   119.50756278
_symmetry_Int_Tables_number   12
_chemical_formula_structural   Te
_chemical_formula_sum   Te3
_cell_volume   98.66528579
_cell_formula_units_Z   3
loop_
 _symmetry_equiv_pos_site_id
 _symmetry_equiv_pos_as_xyz
  1  'x, y, z'
  2  '-x, -y, -z'
  3  'x-y, -y, -z'
  4  '-x+y, y, z'
loop_
 _atom_site_type_symbol
 _atom_site_label
 _atom_site_symmetry_multiplicity
 _atom_site_fract_x
 _atom_site_fract_y
 _atom_site_fract_z
 _atom_site_occupancy
  Te  Te0  2  0.31322900  0.62645800  0.33767500  1.0
  Te  Te1  1  0.00000000  0.00000000  0.00000000  1.0
