# generated using pymatgen
data_Te
_symmetry_space_group_name_H-M   Cmmm
_cell_length_a   3.19694100
_cell_length_b   3.20493002
_cell_length_c   3.20493002
_cell_angle_alpha   92.60683864
_cell_angle_beta   90.00000000
_cell_angle_gamma   90.00000000
_symmetry_Int_Tables_number   65
_chemical_formula_structural   Te
_chemical_formula_sum   Te1
_cell_volume   32.80364176
_cell_formula_units_Z   1
loop_
 _symmetry_equiv_pos_site_id
 _symmetry_equiv_pos_as_xyz
  1  'x, y, z'
  2  '-x, -y, -z'
  3  'x, -y, -z'
  4  '-x, y, z'
  5  '-x, z, y'
  6  'x, -z, -y'
  7  '-x, -z, -y'
  8  'x, z, y'
loop_
 _atom_site_type_symbol
 _atom_site_label
 _atom_site_symmetry_multiplicity
 _atom_site_fract_x
 _atom_site_fract_y
 _atom_site_fract_z
 _atom_site_occupancy
  Te  Te0  1  0.50000000  0.00000000  0.00000000  1.0
