# generated using pymatgen
data_Te
_symmetry_space_group_name_H-M   P2_12_12
_cell_length_a   3.10712700
_cell_length_b   5.24756200
_cell_length_c   8.29945500
_cell_angle_alpha   90.00000000
_cell_angle_beta   90.00000000
_cell_angle_gamma   90.00000000
_symmetry_Int_Tables_number   18
_chemical_formula_structural   Te
_chemical_formula_sum   Te4
_cell_volume   135.32129893
_cell_formula_units_Z   4
loop_
 _symmetry_equiv_pos_site_id
 _symmetry_equiv_pos_as_xyz
  1  'x, y, z'
  2  'x, -y, -z'
  3  '-x, y+1/2, -z+1/2'
  4  '-x, -y+1/2, z+1/2'
loop_
 _atom_site_type_symbol
 _atom_site_label
 _atom_site_symmetry_multiplicity
 _atom_site_fract_x
 _atom_site_fract_y
 _atom_site_fract_z
 _atom_site_occupancy
  Te  Te0  4  0.23776900  0.20428400  0.89014800  1.0
