# generated using pymatgen
data_Te2W
_symmetry_space_group_name_H-M   Pmn2_1
_cell_length_a   3.49794100
_cell_length_b   6.33827400
_cell_length_c   15.43185100
_cell_angle_alpha   90.00000000
_cell_angle_beta   90.00000000
_cell_angle_gamma   90.00000000
_symmetry_Int_Tables_number   31
_chemical_formula_structural   Te2W
_chemical_formula_sum   'Te8 W4'
_cell_volume   342.13815641
_cell_formula_units_Z   4
loop_
 _symmetry_equiv_pos_site_id
 _symmetry_equiv_pos_as_xyz
  1  'x, y, z'
  2  '-x+1/2, -y, z+1/2'
  3  '-x, y, z'
  4  'x+1/2, -y, z+1/2'
loop_
 _atom_site_type_symbol
 _atom_site_label
 _atom_site_symmetry_multiplicity
 _atom_site_fract_x
 _atom_site_fract_y
 _atom_site_fract_z
 _atom_site_occupancy
  Te  Te0  2  0.00000000  0.20778200  0.41195400  1.0
  Te  Te1  2  0.00000000  0.30050100  0.87164300  1.0
  Te  Te2  2  0.00000000  0.64866600  0.10313100  1.0
  Te  Te3  2  0.00000000  0.85927500  0.64346200  1.0
  W  W4  2  0.00000000  0.04228500  0.01418200  1.0
  W  W5  2  0.00000000  0.60138200  0.50091800  1.0
