# generated using pymatgen
data_ZrTe3
_symmetry_space_group_name_H-M   P2_1/m
_cell_length_a   3.95003100
_cell_length_b   5.98697000
_cell_length_c   10.42713908
_cell_angle_alpha   96.85078832
_cell_angle_beta   90.00000000
_cell_angle_gamma   90.00000000
_symmetry_Int_Tables_number   11
_chemical_formula_structural   ZrTe3
_chemical_formula_sum   'Zr2 Te6'
_cell_volume   244.82786054
_cell_formula_units_Z   2
loop_
 _symmetry_equiv_pos_site_id
 _symmetry_equiv_pos_as_xyz
  1  'x, y, z'
  2  '-x, -y, -z'
  3  'x+1/2, -y, -z'
  4  '-x+1/2, y, z'
loop_
 _atom_site_type_symbol
 _atom_site_label
 _atom_site_symmetry_multiplicity
 _atom_site_fract_x
 _atom_site_fract_y
 _atom_site_fract_z
 _atom_site_occupancy
  Zr  Zr0  2  0.25000000  0.71656400  0.33717500  1.0
  Te  Te1  2  0.25000000  0.08211200  0.82757100  1.0
  Te  Te2  2  0.25000000  0.23783500  0.44497000  1.0
  Te  Te3  2  0.25000000  0.55658200  0.82506900  1.0
