# generated using pymatgen
data_Ti3Te4
_symmetry_space_group_name_H-M   C2/m
_cell_length_a   3.81384000
_cell_length_b   7.08072973
_cell_length_c   7.45433552
_cell_angle_alpha   118.03759490
_cell_angle_beta   104.82179690
_cell_angle_gamma   90.00000000
_symmetry_Int_Tables_number   12
_chemical_formula_structural   Ti3Te4
_chemical_formula_sum   'Ti3 Te4'
_cell_volume   170.05147120
_cell_formula_units_Z   1
loop_
 _symmetry_equiv_pos_site_id
 _symmetry_equiv_pos_as_xyz
  1  'x, y, z'
  2  '-x, -y, -z'
  3  'x-z, -y, -z'
  4  '-x+z, y, z'
loop_
 _atom_site_type_symbol
 _atom_site_label
 _atom_site_symmetry_multiplicity
 _atom_site_fract_x
 _atom_site_fract_y
 _atom_site_fract_z
 _atom_site_occupancy
  Ti  Ti0  2  0.24718500  0.29518300  0.49437000  1.0
  Ti  Ti1  1  0.00000000  0.00000000  0.00000000  1.0
  Te  Te2  2  0.10700300  0.44849400  0.21400600  1.0
  Te  Te3  2  0.36519100  0.04101900  0.73038200  1.0
