# generated using pymatgen
data_Th1.6Zr6.4
_symmetry_space_group_name_H-M   P6_3/mmc
_cell_length_a   5.39170900
_cell_length_b   6.65057799
_cell_length_c   6.65057843
_cell_angle_alpha   60.00000217
_cell_angle_beta   90.00000000
_cell_angle_gamma   90.00000000
_symmetry_Int_Tables_number   194
_chemical_formula_structural   Th1.6Zr6.4
_chemical_formula_sum   'Th1.6 Zr6.4'
_cell_volume   206.52655267
_cell_formula_units_Z   1
loop_
 _symmetry_equiv_pos_site_id
 _symmetry_equiv_pos_as_xyz
  1  'x, y, z'
  2  '-x, -y, -z'
  3  'x+1/2, -z, y+z'
  4  '-x+1/2, z, -y-z'
  5  'x, -y-z, y'
  6  '-x, y+z, -y'
  7  'x+1/2, -y, -z'
  8  '-x+1/2, y, z'
  9  'x, z, -y-z'
  10  '-x, -z, y+z'
  11  'x+1/2, y+z, -y'
  12  '-x+1/2, -y-z, y'
  13  '-x+1/2, y, -y-z'
  14  'x+1/2, -y, y+z'
  15  '-x, -z, -y'
  16  'x, z, y'
  17  '-x+1/2, -y-z, z'
  18  'x+1/2, y+z, -z'
  19  '-x, -y, y+z'
  20  'x, y, -y-z'
  21  '-x+1/2, z, y'
  22  'x+1/2, -z, -y'
  23  '-x, y+z, -z'
  24  'x, -y-z, z'
loop_
 _atom_site_type_symbol
 _atom_site_label
 _atom_site_symmetry_multiplicity
 _atom_site_fract_x
 _atom_site_fract_y
 _atom_site_fract_z
 _atom_site_occupancy
  Th  Th0  2  0.25000000  0.33333333  0.33333333  0.8
  Zr  Zr1  2  0.25000000  0.33333333  0.33333333  0.2
  Zr  Zr2  6  0.25000000  0.31349000  0.84325500  1.0
