# generated using pymatgen
data_Zr1.05Ti1.95
_symmetry_space_group_name_H-M   P6/mmm
_cell_length_a   3.00410900
_cell_length_b   4.73152800
_cell_length_c   4.73152761
_cell_angle_alpha   120.00000270
_cell_angle_beta   90.00000000
_cell_angle_gamma   90.00000000
_symmetry_Int_Tables_number   191
_chemical_formula_structural   Zr1.05Ti1.95
_chemical_formula_sum   'Zr1.05 Ti1.95'
_cell_volume   58.24371920
_cell_formula_units_Z   1
loop_
 _symmetry_equiv_pos_site_id
 _symmetry_equiv_pos_as_xyz
  1  'x, y, z'
  2  '-x, -y, -z'
  3  'x, z, -y+z'
  4  '-x, -z, y-z'
  5  'x, -y+z, -y'
  6  '-x, y-z, y'
  7  'x, -y, -z'
  8  '-x, y, z'
  9  'x, -z, y-z'
  10  '-x, z, -y+z'
  11  'x, y-z, y'
  12  '-x, -y+z, -y'
  13  '-x, -y+z, z'
  14  'x, y-z, -z'
  15  '-x, -y, -y+z'
  16  'x, y, y-z'
  17  '-x, -z, -y'
  18  'x, z, y'
  19  '-x, y-z, -z'
  20  'x, -y+z, z'
  21  '-x, y, y-z'
  22  'x, -y, -y+z'
  23  '-x, z, y'
  24  'x, -z, -y'
loop_
 _atom_site_type_symbol
 _atom_site_label
 _atom_site_symmetry_multiplicity
 _atom_site_fract_x
 _atom_site_fract_y
 _atom_site_fract_z
 _atom_site_occupancy
  Zr  Zr0  1  0.00000000  0.00000000  0.00000000  1.0
  Ti  Ti1  2  0.50000000  0.33333333  0.66666667  0.975
  Zr  Zr2  2  0.50000000  0.33333333  0.66666667  0.025
