# generated using pymatgen
data_Ti4V
_symmetry_space_group_name_H-M   Fmmm
_cell_length_a   2.76706371
_cell_length_b   2.76706371
_cell_length_c   11.48284669
_cell_angle_alpha   94.57377500
_cell_angle_beta   94.57377485
_cell_angle_gamma   109.76497722
_symmetry_Int_Tables_number   69
_chemical_formula_structural   Ti4V
_chemical_formula_sum   'Ti4 V1'
_cell_volume   81.94164345
_cell_formula_units_Z   1
loop_
 _symmetry_equiv_pos_site_id
 _symmetry_equiv_pos_as_xyz
  1  'x, y, z'
  2  '-x, -y, -z'
  3  '-x+z, -y+z, z'
  4  'x-z, y-z, -z'
  5  'y-z, x-z, -z'
  6  '-y+z, -x+z, z'
  7  '-y, -x, -z'
  8  'y, x, z'
loop_
 _atom_site_type_symbol
 _atom_site_label
 _atom_site_symmetry_multiplicity
 _atom_site_fract_x
 _atom_site_fract_y
 _atom_site_fract_z
 _atom_site_occupancy
  Ti  Ti0  2  0.19939400  0.19939400  0.39878800  1.0
  Ti  Ti1  2  0.40878900  0.40878900  0.81757800  1.0
  V  V2  1  0.00000000  0.00000000  0.00000000  1.0
