# generated using pymatgen
data_Ti
_symmetry_space_group_name_H-M   P1
_cell_length_a   11.84243552
_cell_length_b   11.97945926
_cell_length_c   12.36697055
_cell_angle_alpha   90.74867631
_cell_angle_beta   90.58911318
_cell_angle_gamma   90.87642928
_symmetry_Int_Tables_number   1
_chemical_formula_structural   Ti
_chemical_formula_sum   Ti100
_cell_volume   1754.00090754
_cell_formula_units_Z   100
loop_
 _symmetry_equiv_pos_site_id
 _symmetry_equiv_pos_as_xyz
  1  'x, y, z'
loop_
 _atom_site_type_symbol
 _atom_site_label
 _atom_site_symmetry_multiplicity
 _atom_site_fract_x
 _atom_site_fract_y
 _atom_site_fract_z
 _atom_site_occupancy
  Ti  Ti0  1  0.00426998  0.03520950  0.04574161  1.0
  Ti  Ti1  1  0.01490010  0.79904801  0.14242155  1.0
  Ti  Ti2  1  0.01604951  0.57513268  0.47547363  1.0
  Ti  Ti3  1  0.03130762  0.83426389  0.91855746  1.0
  Ti  Ti4  1  0.04941679  0.88125327  0.54786231  1.0
  Ti  Ti5  1  0.06485363  0.44708722  0.09600543  1.0
  Ti  Ti6  1  0.06888733  0.59692604  0.26465167  1.0
  Ti  Ti7  1  0.07671107  0.98254929  0.74783661  1.0
  Ti  Ti8  1  0.08092568  0.74439168  0.71015581  1.0
  Ti  Ti9  1  0.08975207  0.52155187  0.85202492  1.0
  Ti  Ti10  1  0.09403382  0.36842837  0.30494464  1.0
  Ti  Ti11  1  0.11290964  0.09199389  0.50099672  1.0
  Ti  Ti12  1  0.11690083  0.51194296  0.63827917  1.0
  Ti  Ti13  1  0.13437536  0.23258040  0.73875095  1.0
  Ti  Ti14  1  0.14283836  0.65879438  0.02427288  1.0
  Ti  Ti15  1  0.14341869  0.05500057  0.26638963  1.0
  Ti  Ti16  1  0.15943934  0.30831802  0.53308280  1.0
  Ti  Ti17  1  0.17297654  0.21224833  0.13463434  1.0
  Ti  Ti18  1  0.18608761  0.33600345  0.95365982  1.0
  Ti  Ti19  1  0.18763157  0.08527527  0.91141222  1.0
  Ti  Ti20  1  0.18796420  0.87493934  0.35749629  1.0
  Ti  Ti21  1  0.20077032  0.89001399  0.10004563  1.0
  Ti  Ti22  1  0.20925343  0.70904438  0.49874038  1.0
  Ti  Ti23  1  0.23219810  0.50357061  0.41390209  1.0
  Ti  Ti24  1  0.26735899  0.85816828  0.86383777  1.0
  Ti  Ti25  1  0.26931786  0.89805704  0.62761865  1.0
  Ti  Ti26  1  0.27089400  0.44941980  0.18737047  1.0
  Ti  Ti27  1  0.27570189  0.69144251  0.23595830  1.0
  Ti  Ti28  1  0.27862060  0.41655312  0.76588262  1.0
  Ti  Ti29  1  0.28422605  0.64609732  0.75613297  1.0
  Ti  Ti30  1  0.28903975  0.26531416  0.35523465  1.0
  Ti  Ti31  1  0.31723130  0.51910242  0.96754985  1.0
  Ti  Ti32  1  0.32575855  0.18014894  0.62529770  1.0
  Ti  Ti33  1  0.33235510  0.04321300  0.45127424  1.0
  Ti  Ti34  1  0.36211354  0.40577978  0.56636343  1.0
  Ti  Ti35  1  0.36246401  0.23609652  0.86279900  1.0
  Ti  Ti36  1  0.36958904  0.75786552  0.04059608  1.0
  Ti  Ti37  1  0.37022123  0.03346599  0.02721646  1.0
  Ti  Ti38  1  0.38338079  0.27110233  0.08799368  1.0
  Ti  Ti39  1  0.38814698  0.02797242  0.78857271  1.0
  Ti  Ti40  1  0.39191424  0.11221242  0.25009179  1.0
  Ti  Ti41  1  0.39206622  0.89429010  0.22366493  1.0
  Ti  Ti42  1  0.43025396  0.63045720  0.56737536  1.0
  Ti  Ti43  1  0.43063881  0.83985891  0.44764061  1.0
  Ti  Ti44  1  0.45489860  0.51505597  0.36872097  1.0
  Ti  Ti45  1  0.46828012  0.80980774  0.72343408  1.0
  Ti  Ti46  1  0.46897486  0.53369277  0.13639269  1.0
  Ti  Ti47  1  0.48866023  0.65246556  0.88604039  1.0
  Ti  Ti48  1  0.49435600  0.48839640  0.74811831  1.0
  Ti  Ti49  1  0.51344593  0.32118436  0.26224609  1.0
  Ti  Ti50  1  0.51371383  0.22139799  0.47245516  1.0
  Ti  Ti51  1  0.51730829  0.38068625  0.95200289  1.0
  Ti  Ti52  1  0.52403345  0.25404050  0.71448818  1.0
  Ti  Ti53  1  0.52949452  0.03963229  0.59107086  1.0
  Ti  Ti54  1  0.52963284  0.72607205  0.28702089  1.0
  Ti  Ti55  1  0.53702599  0.90199217  0.93741176  1.0
  Ti  Ti56  1  0.56601921  0.13978833  0.11679173  1.0
  Ti  Ti57  1  0.56833154  0.12745172  0.90276332  1.0
  Ti  Ti58  1  0.58021504  0.02051510  0.36833057  1.0
  Ti  Ti59  1  0.58292568  0.42932303  0.56198895  1.0
  Ti  Ti60  1  0.59532359  0.72198466  0.06995892  1.0
  Ti  Ti61  1  0.61972485  0.92609650  0.16369312  1.0
  Ti  Ti62  1  0.63281440  0.84118855  0.57363476  1.0
  Ti  Ti63  1  0.63629265  0.63316187  0.46468605  1.0
  Ti  Ti64  1  0.65594004  0.54434817  0.23090578  1.0
  Ti  Ti65  1  0.66971352  0.64245687  0.67479341  1.0
  Ti  Ti66  1  0.67256639  0.98761101  0.75882723  1.0
  Ti  Ti67  1  0.68712699  0.53858484  0.98732947  1.0
  Ti  Ti68  1  0.68781661  0.75131267  0.85647106  1.0
  Ti  Ti69  1  0.69163661  0.34045915  0.10857617  1.0
  Ti  Ti70  1  0.69338551  0.37866044  0.39670778  1.0
  Ti  Ti71  1  0.72246706  0.45671189  0.77647517  1.0
  Ti  Ti72  1  0.72499703  0.18665679  0.26367786  1.0
  Ti  Ti73  1  0.73247913  0.27645952  0.87901517  1.0
  Ti  Ti74  1  0.73384547  0.24742349  0.65347148  1.0
  Ti  Ti75  1  0.73437457  0.84822865  0.37340306  1.0
  Ti  Ti76  1  0.76050713  0.15196029  0.46482451  1.0
  Ti  Ti77  1  0.78037630  0.11900964  0.02998630  1.0
  Ti  Ti78  1  0.78944475  0.90065198  0.98681300  1.0
  Ti  Ti79  1  0.79264482  0.75778630  0.17516005  1.0
  Ti  Ti80  1  0.81141930  0.49805090  0.57377571  1.0
  Ti  Ti81  1  0.81743532  0.96796175  0.57852790  1.0
  Ti  Ti82  1  0.83027948  0.60394390  0.36264557  1.0
  Ti  Ti83  1  0.84192968  0.99014203  0.20355655  1.0
  Ti  Ti84  1  0.85534135  0.73509720  0.55575552  1.0
  Ti  Ti85  1  0.86973268  0.55164382  0.14466944  1.0
  Ti  Ti86  1  0.86973394  0.84902818  0.75343472  1.0
  Ti  Ti87  1  0.87314626  0.06690973  0.83641098  1.0
  Ti  Ti88  1  0.87491580  0.38842529  0.29118050  1.0
  Ti  Ti89  1  0.88636342  0.42636458  0.95742225  1.0
  Ti  Ti90  1  0.89317742  0.66356857  0.96300552  1.0
  Ti  Ti91  1  0.90325274  0.60589887  0.74335787  1.0
  Ti  Ti92  1  0.93702091  0.99181809  0.39517373  1.0
  Ti  Ti93  1  0.93721556  0.33633661  0.51144504  1.0
  Ti  Ti94  1  0.93778256  0.25360971  0.12989918  1.0
  Ti  Ti95  1  0.93901601  0.36429763  0.74078598  1.0
  Ti  Ti96  1  0.94064103  0.14614138  0.63564250  1.0
  Ti  Ti97  1  0.96848308  0.19102346  0.34214055  1.0
  Ti  Ti98  1  0.97093659  0.77486114  0.35772692  1.0
  Ti  Ti99  1  0.99136187  0.22823144  0.91921753  1.0
