# generated using pymatgen
data_Ti
_symmetry_space_group_name_H-M   P1
_cell_length_a   11.62667855
_cell_length_b   12.21754221
_cell_length_c   12.31047085
_cell_angle_alpha   86.71253947
_cell_angle_beta   89.32063507
_cell_angle_gamma   92.23283822
_symmetry_Int_Tables_number   1
_chemical_formula_structural   Ti
_chemical_formula_sum   Ti100
_cell_volume   1744.31822434
_cell_formula_units_Z   100
loop_
 _symmetry_equiv_pos_site_id
 _symmetry_equiv_pos_as_xyz
  1  'x, y, z'
loop_
 _atom_site_type_symbol
 _atom_site_label
 _atom_site_symmetry_multiplicity
 _atom_site_fract_x
 _atom_site_fract_y
 _atom_site_fract_z
 _atom_site_occupancy
  Ti  Ti0  1  0.00629095  0.85577751  0.38771287  1.0
  Ti  Ti1  1  0.01047427  0.64922562  0.99531770  1.0
  Ti  Ti2  1  0.01230807  0.67001146  0.58252393  1.0
  Ti  Ti3  1  0.01261234  0.75314758  0.20436074  1.0
  Ti  Ti4  1  0.02662088  0.32328210  0.34283036  1.0
  Ti  Ti5  1  0.03699189  0.60268083  0.37825619  1.0
  Ti  Ti6  1  0.03895563  0.12533635  0.62355728  1.0
  Ti  Ti7  1  0.07228087  0.96913727  0.17068516  1.0
  Ti  Ti8  1  0.09398609  0.87389821  0.96036436  1.0
  Ti  Ti9  1  0.10919617  0.82355400  0.73590066  1.0
  Ti  Ti10  1  0.11229633  0.21021045  0.16924541  1.0
  Ti  Ti11  1  0.12526223  0.25395794  0.88602725  1.0
  Ti  Ti12  1  0.13925613  0.46670008  0.19768076  1.0
  Ti  Ti13  1  0.14234283  0.47590369  0.98495962  1.0
  Ti  Ti14  1  0.14992298  0.05638946  0.77918496  1.0
  Ti  Ti15  1  0.15943614  0.95721060  0.53288258  1.0
  Ti  Ti16  1  0.16386296  0.45015524  0.47897363  1.0
  Ti  Ti17  1  0.17341825  0.31523073  0.67064773  1.0
  Ti  Ti18  1  0.17400402  0.54580773  0.71458869  1.0
  Ti  Ti19  1  0.19849713  0.23486930  0.46210259  1.0
  Ti  Ti20  1  0.20385019  0.72872903  0.49800688  1.0
  Ti  Ti21  1  0.20463387  0.69840223  0.11165966  1.0
  Ti  Ti22  1  0.21407523  0.68106280  0.88210736  1.0
  Ti  Ti23  1  0.22735631  0.06800181  0.31847617  1.0
  Ti  Ti24  1  0.23073893  0.07728696  0.99294668  1.0
  Ti  Ti25  1  0.23575022  0.83148942  0.31594960  1.0
  Ti  Ti26  1  0.27127780  0.59237127  0.32805075  1.0
  Ti  Ti27  1  0.28909369  0.30288548  0.04713140  1.0
  Ti  Ti28  1  0.29896250  0.91401106  0.10875359  1.0
  Ti  Ti29  1  0.30530503  0.92828955  0.82641193  1.0
  Ti  Ti30  1  0.30861534  0.31937317  0.27071059  1.0
  Ti  Ti31  1  0.31256473  0.12962067  0.60815746  1.0
  Ti  Ti32  1  0.31804769  0.41083189  0.86352305  1.0
  Ti  Ti33  1  0.32328971  0.75073388  0.68291932  1.0
  Ti  Ti34  1  0.34489015  0.54099581  0.05331147  1.0
  Ti  Ti35  1  0.34515012  0.56504582  0.56879865  1.0
  Ti  Ti36  1  0.34891644  0.18294995  0.81832257  1.0
  Ti  Ti37  1  0.37696446  0.91466111  0.52140889  1.0
  Ti  Ti38  1  0.40308959  0.39626261  0.45517334  1.0
  Ti  Ti39  1  0.40504290  0.35935441  0.67357386  1.0
  Ti  Ti40  1  0.40625856  0.12853980  0.16232224  1.0
  Ti  Ti41  1  0.41062659  0.76618053  0.97202524  1.0
  Ti  Ti42  1  0.42074461  0.74602130  0.19155449  1.0
  Ti  Ti43  1  0.43128240  0.71737759  0.41405063  1.0
  Ti  Ti44  1  0.43336530  0.60118287  0.80322940  1.0
  Ti  Ti45  1  0.43454022  0.15647503  0.38685227  1.0
  Ti  Ti46  1  0.43892306  0.94354379  0.30346011  1.0
  Ti  Ti47  1  0.46744437  0.50511034  0.24030835  1.0
  Ti  Ti48  1  0.48017100  0.99294953  0.93920731  1.0
  Ti  Ti49  1  0.49740525  0.03362824  0.71434984  1.0
  Ti  Ti50  1  0.51149611  0.38911842  0.06694816  1.0
  Ti  Ti51  1  0.52026254  0.20829620  0.96762033  1.0
  Ti  Ti52  1  0.52897877  0.82756401  0.78896902  1.0
  Ti  Ti53  1  0.53754136  0.21405384  0.55149442  1.0
  Ti  Ti54  1  0.55728020  0.74619378  0.59005822  1.0
  Ti  Ti55  1  0.56830077  0.52187185  0.62363370  1.0
  Ti  Ti56  1  0.56962699  0.42479964  0.84506103  1.0
  Ti  Ti57  1  0.57778123  0.59946022  0.00291424  1.0
  Ti  Ti58  1  0.57915632  0.94611605  0.13912640  1.0
  Ti  Ti59  1  0.59264400  0.99519625  0.51936230  1.0
  Ti  Ti60  1  0.59540219  0.34915848  0.35596261  1.0
  Ti  Ti61  1  0.61173756  0.56980073  0.39982335  1.0
  Ti  Ti62  1  0.61977673  0.22677920  0.76664692  1.0
  Ti  Ti63  1  0.62070866  0.23647091  0.17415009  1.0
  Ti  Ti64  1  0.63413182  0.82711782  0.37945841  1.0
  Ti  Ti65  1  0.64398096  0.70453824  0.20188634  1.0
  Ti  Ti66  1  0.65181411  0.06271858  0.30942254  1.0
  Ti  Ti67  1  0.65354020  0.82587107  0.97808618  1.0
  Ti  Ti68  1  0.67901715  0.65426547  0.78910770  1.0
  Ti  Ti69  1  0.69749245  0.48198099  0.18398006  1.0
  Ti  Ti70  1  0.70289192  0.02331254  0.84124490  1.0
  Ti  Ti71  1  0.70397614  0.34886259  0.57790586  1.0
  Ti  Ti72  1  0.72894672  0.87237790  0.66600834  1.0
  Ti  Ti73  1  0.73008822  0.31421879  0.97250852  1.0
  Ti  Ti74  1  0.73121849  0.10098641  0.04146875  1.0
  Ti  Ti75  1  0.75437835  0.20654505  0.42081683  1.0
  Ti  Ti76  1  0.77456227  0.10204701  0.63182530  1.0
  Ti  Ti77  1  0.77565435  0.64136617  0.57510245  1.0
  Ti  Ti78  1  0.78573848  0.46047187  0.74369161  1.0
  Ti  Ti79  1  0.80582253  0.95717652  0.45493298  1.0
  Ti  Ti80  1  0.80847082  0.88702530  0.23287667  1.0
  Ti  Ti81  1  0.81061761  0.51947420  0.96094644  1.0
  Ti  Ti82  1  0.81857802  0.70784590  0.06407702  1.0
  Ti  Ti83  1  0.82617646  0.69287130  0.34971317  1.0
  Ti  Ti84  1  0.83264321  0.31241125  0.23179474  1.0
  Ti  Ti85  1  0.83276215  0.46469109  0.42199558  1.0
  Ti  Ti86  1  0.85911316  0.80783058  0.84890834  1.0
  Ti  Ti87  1  0.87327780  0.92531524  0.02813520  1.0
  Ti  Ti88  1  0.88253118  0.23741867  0.78494101  1.0
  Ti  Ti89  1  0.88823046  0.10084300  0.21155354  1.0
  Ti  Ti90  1  0.91856589  0.53730568  0.18976994  1.0
  Ti  Ti91  1  0.92411413  0.27048970  0.53774552  1.0
  Ti  Ti92  1  0.92740266  0.01038622  0.80967916  1.0
  Ti  Ti93  1  0.94317097  0.63349389  0.77942482  1.0
  Ti  Ti94  1  0.94582001  0.88579968  0.62544802  1.0
  Ti  Ti95  1  0.96186283  0.34547126  0.05088694  1.0
  Ti  Ti96  1  0.97161581  0.12535015  0.99918926  1.0
  Ti  Ti97  1  0.97898636  0.45171954  0.61867394  1.0
  Ti  Ti98  1  0.99751156  0.42703859  0.83645175  1.0
  Ti  Ti99  1  0.99787492  0.09158206  0.40561382  1.0
