# generated using pymatgen
data_Ti
_symmetry_space_group_name_H-M   P1
_cell_length_a   11.97372803
_cell_length_b   12.41144429
_cell_length_c   12.07919302
_cell_angle_alpha   80.90522943
_cell_angle_beta   82.64956994
_cell_angle_gamma   83.93840267
_symmetry_Int_Tables_number   1
_chemical_formula_structural   Ti
_chemical_formula_sum   Ti100
_cell_volume   1751.27708576
_cell_formula_units_Z   100
loop_
 _symmetry_equiv_pos_site_id
 _symmetry_equiv_pos_as_xyz
  1  'x, y, z'
loop_
 _atom_site_type_symbol
 _atom_site_label
 _atom_site_symmetry_multiplicity
 _atom_site_fract_x
 _atom_site_fract_y
 _atom_site_fract_z
 _atom_site_occupancy
  Ti  Ti0  1  0.01166164  0.94679236  0.03677880  1.0
  Ti  Ti1  1  0.03475018  0.15431591  0.78678302  1.0
  Ti  Ti2  1  0.03574338  0.57158473  0.32309904  1.0
  Ti  Ti3  1  0.04043358  0.32845282  0.16909965  1.0
  Ti  Ti4  1  0.05763138  0.71769263  0.03723108  1.0
  Ti  Ti5  1  0.07025177  0.54656998  0.91835018  1.0
  Ti  Ti6  1  0.08175793  0.99447915  0.63109923  1.0
  Ti  Ti7  1  0.08672352  0.96758621  0.38501340  1.0
  Ti  Ti8  1  0.08689891  0.79109090  0.24193972  1.0
  Ti  Ti9  1  0.11242150  0.35672732  0.55371612  1.0
  Ti  Ti10  1  0.11792322  0.35961870  0.77479327  1.0
  Ti  Ti11  1  0.12730919  0.58521049  0.63634417  1.0
  Ti  Ti12  1  0.14080947  0.19948025  0.42742505  1.0
  Ti  Ti13  1  0.14174313  0.74960849  0.80393652  1.0
  Ti  Ti14  1  0.15555906  0.51758249  0.13044590  1.0
  Ti  Ti15  1  0.16166184  0.13062633  0.95857995  1.0
  Ti  Ti16  1  0.18065964  0.98053670  0.14969467  1.0
  Ti  Ti17  1  0.18701602  0.79641288  0.55390584  1.0
  Ti  Ti18  1  0.18756125  0.15185931  0.22504112  1.0
  Ti  Ti19  1  0.19584115  0.97426760  0.81550524  1.0
  Ti  Ti20  1  0.21457751  0.63365645  0.40021623  1.0
  Ti  Ti21  1  0.21574143  0.33836282  0.99870807  1.0
  Ti  Ti22  1  0.21975896  0.41296285  0.33658735  1.0
  Ti  Ti23  1  0.23951416  0.15503665  0.64603477  1.0
  Ti  Ti24  1  0.24551561  0.84924684  0.00874860  1.0
  Ti  Ti25  1  0.27747243  0.00757181  0.47920042  1.0
  Ti  Ti26  1  0.27780687  0.46640379  0.79022859  1.0
  Ti  Ti27  1  0.28825787  0.84380484  0.31419416  1.0
  Ti  Ti28  1  0.28848249  0.68289686  0.17235908  1.0
  Ti  Ti29  1  0.29129100  0.60279214  0.95509221  1.0
  Ti  Ti30  1  0.33709941  0.36205117  0.59334818  1.0
  Ti  Ti31  1  0.34260480  0.67141252  0.71646474  1.0
  Ti  Ti32  1  0.34944864  0.23802885  0.82062174  1.0
  Ti  Ti33  1  0.35380446  0.28995516  0.18306859  1.0
  Ti  Ti34  1  0.35442064  0.89986670  0.66184136  1.0
  Ti  Ti35  1  0.35841877  0.12198420  0.05108803  1.0
  Ti  Ti36  1  0.36439873  0.22316973  0.42081041  1.0
  Ti  Ti37  1  0.38107856  0.59548995  0.52612598  1.0
  Ti  Ti38  1  0.38911229  0.48861700  0.15044246  1.0
  Ti  Ti39  1  0.40719899  0.05190577  0.27185927  1.0
  Ti  Ti40  1  0.40806969  0.98676515  0.89115702  1.0
  Ti  Ti41  1  0.41370851  0.77197307  0.87534969  1.0
  Ti  Ti42  1  0.44189259  0.38319513  0.94679447  1.0
  Ti  Ti43  1  0.44349911  0.81953289  0.46101424  1.0
  Ti  Ti44  1  0.44827881  0.85402527  0.12643008  1.0
  Ti  Ti45  1  0.45382721  0.42602647  0.36240949  1.0
  Ti  Ti46  1  0.46620395  0.09851255  0.67870345  1.0
  Ti  Ti47  1  0.47205128  0.66294159  0.29797716  1.0
  Ti  Ti48  1  0.49545533  0.45453829  0.68808964  1.0
  Ti  Ti49  1  0.50215229  0.02380274  0.48557716  1.0
  Ti  Ti50  1  0.52222545  0.56884003  0.85926181  1.0
  Ti  Ti51  1  0.52739758  0.63819584  0.06529209  1.0
  Ti  Ti52  1  0.55081914  0.26876820  0.51780689  1.0
  Ti  Ti53  1  0.55636926  0.22707625  0.26976546  1.0
  Ti  Ti54  1  0.55697012  0.67878333  0.62108270  1.0
  Ti  Ti55  1  0.55968480  0.87573588  0.71771841  1.0
  Ti  Ti56  1  0.57226713  0.20705273  0.01554672  1.0
  Ti  Ti57  1  0.57727349  0.01019540  0.08649617  1.0
  Ti  Ti58  1  0.59886581  0.39384765  0.09468974  1.0
  Ti  Ti59  1  0.60660755  0.50397232  0.47712734  1.0
  Ti  Ti60  1  0.60688614  0.25382765  0.74801068  1.0
  Ti  Ti61  1  0.61233791  0.91101002  0.28544446  1.0
  Ti  Ti62  1  0.62676638  0.82936546  0.94144487  1.0
  Ti  Ti63  1  0.63533436  0.04839558  0.85991854  1.0
  Ti  Ti64  1  0.66198780  0.51881781  0.23983495  1.0
  Ti  Ti65  1  0.66933757  0.71900315  0.38529765  1.0
  Ti  Ti66  1  0.68176890  0.73800195  0.14520411  1.0
  Ti  Ti67  1  0.69491327  0.88888795  0.50301709  1.0
  Ti  Ti68  1  0.69574522  0.09703505  0.60294209  1.0
  Ti  Ti69  1  0.69860899  0.68522214  0.79896740  1.0
  Ti  Ti70  1  0.70667187  0.36525634  0.88278522  1.0
  Ti  Ti71  1  0.71521793  0.08355043  0.38552998  1.0
  Ti  Ti72  1  0.71726993  0.50969064  0.67787462  1.0
  Ti  Ti73  1  0.73463307  0.31685239  0.34892588  1.0
  Ti  Ti74  1  0.74298630  0.10788056  0.16262110  1.0
  Ti  Ti75  1  0.74688663  0.53664799  0.98156255  1.0
  Ti  Ti76  1  0.76293031  0.33236056  0.56472475  1.0
  Ti  Ti77  1  0.77353042  0.88719439  0.74591107  1.0
  Ti  Ti78  1  0.79172881  0.69903888  0.58237363  1.0
  Ti  Ti79  1  0.79353244  0.92793497  0.02298680  1.0
  Ti  Ti80  1  0.81447889  0.31651749  0.12799943  1.0
  Ti  Ti81  1  0.81929465  0.55777526  0.38235781  1.0
  Ti  Ti82  1  0.82948020  0.12192648  0.74293766  1.0
  Ti  Ti83  1  0.83446086  0.15449885  0.94587220  1.0
  Ti  Ti84  1  0.86293954  0.72310251  0.93968806  1.0
  Ti  Ti85  1  0.87005248  0.93383624  0.29409085  1.0
  Ti  Ti86  1  0.87839094  0.73294481  0.21720270  1.0
  Ti  Ti87  1  0.89342840  0.96521814  0.52754990  1.0
  Ti  Ti88  1  0.90074610  0.33633918  0.72962078  1.0
  Ti  Ti89  1  0.90265269  0.55261944  0.77882177  1.0
  Ti  Ti90  1  0.90857014  0.52995954  0.13466077  1.0
  Ti  Ti91  1  0.93459775  0.15415172  0.33201454  1.0
  Ti  Ti92  1  0.94003792  0.50873559  0.55248623  1.0
  Ti  Ti93  1  0.94684718  0.18511966  0.55226192  1.0
  Ti  Ti94  1  0.95661443  0.35084601  0.95114153  1.0
  Ti  Ti95  1  0.96037116  0.36579198  0.38121941  1.0
  Ti  Ti96  1  0.96180464  0.92170932  0.83594628  1.0
  Ti  Ti97  1  0.96686670  0.76699882  0.67895504  1.0
  Ti  Ti98  1  0.97643025  0.14224220  0.11271450  1.0
  Ti  Ti99  1  0.97802633  0.74498673  0.44510223  1.0
