# generated using pymatgen
data_Ti
_symmetry_space_group_name_H-M   P1
_cell_length_a   11.90456123
_cell_length_b   11.91040035
_cell_length_c   12.43710609
_cell_angle_alpha   93.63575933
_cell_angle_beta   91.93474218
_cell_angle_gamma   90.81893265
_symmetry_Int_Tables_number   1
_chemical_formula_structural   Ti
_chemical_formula_sum   Ti100
_cell_volume   1758.64232848
_cell_formula_units_Z   100
loop_
 _symmetry_equiv_pos_site_id
 _symmetry_equiv_pos_as_xyz
  1  'x, y, z'
loop_
 _atom_site_type_symbol
 _atom_site_label
 _atom_site_symmetry_multiplicity
 _atom_site_fract_x
 _atom_site_fract_y
 _atom_site_fract_z
 _atom_site_occupancy
  Ti  Ti0  1  0.00187538  0.29034656  0.11599444  1.0
  Ti  Ti1  1  0.00398035  0.98749537  0.49296053  1.0
  Ti  Ti2  1  0.01050610  0.60182918  0.45271467  1.0
  Ti  Ti3  1  0.01252949  0.17482955  0.32364878  1.0
  Ti  Ti4  1  0.03894080  0.49529127  0.02991022  1.0
  Ti  Ti5  1  0.04085703  0.29192982  0.88360475  1.0
  Ti  Ti6  1  0.04494170  0.88245758  0.88766731  1.0
  Ti  Ti7  1  0.05007696  0.75861088  0.28765724  1.0
  Ti  Ti8  1  0.05462466  0.89216452  0.11107251  1.0
  Ti  Ti9  1  0.08660800  0.66065761  0.87375913  1.0
  Ti  Ti10  1  0.10715922  0.08914869  0.97231133  1.0
  Ti  Ti11  1  0.12593647  0.10432603  0.74421590  1.0
  Ti  Ti12  1  0.14793531  0.53235231  0.21548430  1.0
  Ti  Ti13  1  0.15151902  0.43668227  0.51238015  1.0
  Ti  Ti14  1  0.15297946  0.63163869  0.65864187  1.0
  Ti  Ti15  1  0.15409329  0.85930810  0.70926062  1.0
  Ti  Ti16  1  0.16419444  0.31483434  0.68459851  1.0
  Ti  Ti17  1  0.16535494  0.80930117  0.48259247  1.0
  Ti  Ti18  1  0.16735845  0.13050224  0.17268881  1.0
  Ti  Ti19  1  0.16847639  0.98525837  0.33833150  1.0
  Ti  Ti20  1  0.17613331  0.21239448  0.47997266  1.0
  Ti  Ti21  1  0.18282591  0.47803320  0.83225570  1.0
  Ti  Ti22  1  0.18905630  0.68618089  0.07039274  1.0
  Ti  Ti23  1  0.20373822  0.35089723  0.06893249  1.0
  Ti  Ti24  1  0.23108381  0.35163014  0.31082772  1.0
  Ti  Ti25  1  0.23396034  0.01713388  0.55911577  1.0
  Ti  Ti26  1  0.24388114  0.61620873  0.38734098  1.0
  Ti  Ti27  1  0.24812362  0.90277100  0.01325357  1.0
  Ti  Ti28  1  0.26130204  0.24026646  0.87383886  1.0
  Ti  Ti29  1  0.28808195  0.81425422  0.23040798  1.0
  Ti  Ti30  1  0.31149598  0.71677246  0.83294660  1.0
  Ti  Ti31  1  0.32602927  0.98488948  0.82346578  1.0
  Ti  Ti32  1  0.33655789  0.52945239  0.99306452  1.0
  Ti  Ti33  1  0.34588238  0.15447162  0.35939379  1.0
  Ti  Ti34  1  0.34940002  0.82586130  0.62584812  1.0
  Ti  Ti35  1  0.35026607  0.56819195  0.58218531  1.0
  Ti  Ti36  1  0.36471293  0.14006293  0.06084965  1.0
  Ti  Ti37  1  0.37079079  0.16515841  0.67939798  1.0
  Ti  Ti38  1  0.37609422  0.40776479  0.73395782  1.0
  Ti  Ti39  1  0.38801102  0.32492635  0.52328921  1.0
  Ti  Ti40  1  0.38852038  0.58594427  0.20819037  1.0
  Ti  Ti41  1  0.39376594  0.91622454  0.42235016  1.0
  Ti  Ti42  1  0.40124327  0.34179197  0.16941810  1.0
  Ti  Ti43  1  0.42738651  0.73361419  0.04942816  1.0
  Ti  Ti44  1  0.44589263  0.34562658  0.93636505  1.0
  Ti  Ti45  1  0.45234130  0.01237888  0.23819090  1.0
  Ti  Ti46  1  0.45555509  0.68602303  0.44158278  1.0
  Ti  Ti47  1  0.45707609  0.46585591  0.37039402  1.0
  Ti  Ti48  1  0.47165374  0.96945877  0.02398450  1.0
  Ti  Ti49  1  0.49441588  0.13622664  0.86546749  1.0
  Ti  Ti50  1  0.50955205  0.57521842  0.84488855  1.0
  Ti  Ti51  1  0.51911731  0.80344398  0.25337851  1.0
  Ti  Ti52  1  0.51913931  0.72797528  0.68240781  1.0
  Ti  Ti53  1  0.53572423  0.83372683  0.86873432  1.0
  Ti  Ti54  1  0.53798145  0.97691210  0.68186619  1.0
  Ti  Ti55  1  0.54298231  0.10588042  0.49663365  1.0
  Ti  Ti56  1  0.55845198  0.21787023  0.28986914  1.0
  Ti  Ti57  1  0.56234994  0.46193046  0.09509313  1.0
  Ti  Ti58  1  0.56300743  0.52341748  0.57849325  1.0
  Ti  Ti59  1  0.56816958  0.30097355  0.67723193  1.0
  Ti  Ti60  1  0.59128532  0.23082559  0.07109970  1.0
  Ti  Ti61  1  0.60218028  0.82174057  0.48572573  1.0
  Ti  Ti62  1  0.62828238  0.32376030  0.47229082  1.0
  Ti  Ti63  1  0.64074922  0.85301795  0.06972503  1.0
  Ti  Ti64  1  0.65055971  0.64794898  0.29050704  1.0
  Ti  Ti65  1  0.65853066  0.64321578  0.05537476  1.0
  Ti  Ti66  1  0.65934015  0.40835824  0.87505104  1.0
  Ti  Ti67  1  0.67757063  0.42655331  0.29355858  1.0
  Ti  Ti68  1  0.67863342  0.95475030  0.35539988  1.0
  Ti  Ti69  1  0.68865031  0.03888968  0.95796992  1.0
  Ti  Ti70  1  0.69341587  0.14449889  0.77882087  1.0
  Ti  Ti71  1  0.69433209  0.05486081  0.18302031  1.0
  Ti  Ti72  1  0.71895502  0.66498220  0.85279859  1.0
  Ti  Ti73  1  0.73889959  0.71502463  0.63078319  1.0
  Ti  Ti74  1  0.74258404  0.89687091  0.77375703  1.0
  Ti  Ti75  1  0.75161205  0.47750901  0.68067724  1.0
  Ti  Ti76  1  0.75570398  0.17814927  0.58599268  1.0
  Ti  Ti77  1  0.77146653  0.56406111  0.46384094  1.0
  Ti  Ti78  1  0.77407562  0.95187982  0.55708135  1.0
  Ti  Ti79  1  0.79157062  0.15639083  0.38679189  1.0
  Ti  Ti80  1  0.79769668  0.46717767  0.08239638  1.0
  Ti  Ti81  1  0.80282506  0.26467326  0.97273842  1.0
  Ti  Ti82  1  0.80298240  0.27198416  0.20785798  1.0
  Ti  Ti83  1  0.81137790  0.80508553  0.19867370  1.0
  Ti  Ti84  1  0.84470892  0.77522854  0.40573942  1.0
  Ti  Ti85  1  0.84547186  0.88013573  0.98041557  1.0
  Ti  Ti86  1  0.86252226  0.36224444  0.49250831  1.0
  Ti  Ti87  1  0.86256450  0.29626777  0.74598211  1.0
  Ti  Ti88  1  0.87292382  0.58254031  0.26380336  1.0
  Ti  Ti89  1  0.88258420  0.49184785  0.87905929  1.0
  Ti  Ti90  1  0.89373545  0.08858908  0.88332909  1.0
  Ti  Ti91  1  0.90498611  0.71166780  0.78456690  1.0
  Ti  Ti92  1  0.91124568  0.08600582  0.10605413  1.0
  Ti  Ti93  1  0.91170506  0.67903612  0.03091035  1.0
  Ti  Ti94  1  0.92326545  0.96544127  0.29284204  1.0
  Ti  Ti95  1  0.93710895  0.98821927  0.70374074  1.0
  Ti  Ti96  1  0.96212407  0.78067871  0.59738231  1.0
  Ti  Ti97  1  0.97836442  0.49479928  0.67071097  1.0
  Ti  Ti98  1  0.98272464  0.19569554  0.58231961  1.0
  Ti  Ti99  1  0.99996404  0.40028066  0.32496938  1.0
