# generated using pymatgen
data_Ti
_symmetry_space_group_name_H-M   P1
_cell_length_a   11.45705503
_cell_length_b   12.49990441
_cell_length_c   12.33946894
_cell_angle_alpha   87.91287175
_cell_angle_beta   86.99672740
_cell_angle_gamma   91.67285824
_symmetry_Int_Tables_number   1
_chemical_formula_structural   Ti
_chemical_formula_sum   Ti100
_cell_volume   1762.70672177
_cell_formula_units_Z   100
loop_
 _symmetry_equiv_pos_site_id
 _symmetry_equiv_pos_as_xyz
  1  'x, y, z'
loop_
 _atom_site_type_symbol
 _atom_site_label
 _atom_site_symmetry_multiplicity
 _atom_site_fract_x
 _atom_site_fract_y
 _atom_site_fract_z
 _atom_site_occupancy
  Ti  Ti0  1  0.00698232  0.02330549  0.08863515  1.0
  Ti  Ti1  1  0.00741608  0.79147966  0.07683747  1.0
  Ti  Ti2  1  0.01138941  0.59200175  0.72772829  1.0
  Ti  Ti3  1  0.01793363  0.25446591  0.36516963  1.0
  Ti  Ti4  1  0.03084995  0.40074607  0.83177194  1.0
  Ti  Ti5  1  0.03446428  0.99081943  0.72859043  1.0
  Ti  Ti6  1  0.03565569  0.18613477  0.92024415  1.0
  Ti  Ti7  1  0.04288276  0.20716559  0.69600790  1.0
  Ti  Ti8  1  0.06101677  0.79729195  0.63410828  1.0
  Ti  Ti9  1  0.06662923  0.60522850  0.95514073  1.0
  Ti  Ti10  1  0.07994336  0.58788243  0.18634622  1.0
  Ti  Ti11  1  0.11739554  0.06215837  0.28751670  1.0
  Ti  Ti12  1  0.12059147  0.75261046  0.41417708  1.0
  Ti  Ti13  1  0.14127596  0.07384678  0.52030139  1.0
  Ti  Ti14  1  0.14406742  0.45409875  0.41143550  1.0
  Ti  Ti15  1  0.16526247  0.99726329  0.90928799  1.0
  Ti  Ti16  1  0.16658623  0.37616199  0.20997005  1.0
  Ti  Ti17  1  0.17502844  0.19387983  0.08882378  1.0
  Ti  Ti18  1  0.17905979  0.79949632  0.22658298  1.0
  Ti  Ti19  1  0.19462598  0.43605448  0.65211284  1.0
  Ti  Ti20  1  0.21482703  0.42018158  0.97415639  1.0
  Ti  Ti21  1  0.21489071  0.64324902  0.56086287  1.0
  Ti  Ti22  1  0.21721750  0.27422442  0.49802333  1.0
  Ti  Ti23  1  0.22725059  0.28635457  0.81330812  1.0
  Ti  Ti24  1  0.23178302  0.58934571  0.78660705  1.0
  Ti  Ti25  1  0.23801012  0.76413657  0.00739772  1.0
  Ti  Ti26  1  0.24110597  0.81614937  0.78227686  1.0
  Ti  Ti27  1  0.24264547  0.97089896  0.11171697  1.0
  Ti  Ti28  1  0.25127265  0.09865771  0.71770667  1.0
  Ti  Ti29  1  0.26386883  0.89022628  0.54808043  1.0
  Ti  Ti30  1  0.29164663  0.60376805  0.31882142  1.0
  Ti  Ti31  1  0.30563799  0.55697460  0.10791280  1.0
  Ti  Ti32  1  0.30723641  0.19964492  0.29768896  1.0
  Ti  Ti33  1  0.33121347  0.96045285  0.33366461  1.0
  Ti  Ti34  1  0.36990401  0.76225074  0.39804478  1.0
  Ti  Ti35  1  0.37136446  0.31987562  0.10694526  1.0
  Ti  Ti36  1  0.37173163  0.48427240  0.52286299  1.0
  Ti  Ti37  1  0.37215345  0.17060203  0.92716066  1.0
  Ti  Ti38  1  0.38434355  0.40817869  0.31591571  1.0
  Ti  Ti39  1  0.38776493  0.94053249  0.92822827  1.0
  Ti  Ti40  1  0.39483019  0.28305238  0.63470709  1.0
  Ti  Ti41  1  0.39789612  0.62863961  0.91419008  1.0
  Ti  Ti42  1  0.40628842  0.08528729  0.52483852  1.0
  Ti  Ti43  1  0.41306076  0.76788071  0.16925875  1.0
  Ti  Ti44  1  0.41846374  0.68749084  0.64641472  1.0
  Ti  Ti45  1  0.41866390  0.44755653  0.76709092  1.0
  Ti  Ti46  1  0.41987599  0.96646505  0.71063219  1.0
  Ti  Ti47  1  0.44262558  0.08943789  0.13769944  1.0
  Ti  Ti48  1  0.49582630  0.26624178  0.42342374  1.0
  Ti  Ti49  1  0.50218873  0.88153196  0.50623099  1.0
  Ti  Ti50  1  0.51479839  0.79983936  0.80165267  1.0
  Ti  Ti51  1  0.51633275  0.43629007  0.96664185  1.0
  Ti  Ti52  1  0.53270280  0.54022024  0.16485819  1.0
  Ti  Ti53  1  0.53303316  0.62123275  0.42749145  1.0
  Ti  Ti54  1  0.53521116  0.16538675  0.75214215  1.0
  Ti  Ti55  1  0.56123969  0.25857930  0.20483096  1.0
  Ti  Ti56  1  0.56153779  0.92105489  0.06484318  1.0
  Ti  Ti57  1  0.57295760  0.91353458  0.27331371  1.0
  Ti  Ti58  1  0.58890276  0.42868422  0.57028209  1.0
  Ti  Ti59  1  0.59389097  0.20190216  0.98689543  1.0
  Ti  Ti60  1  0.59417901  0.70733485  0.01532109  1.0
  Ti  Ti61  1  0.59687163  0.08315435  0.36771512  1.0
  Ti  Ti62  1  0.61322229  0.59256308  0.81315844  1.0
  Ti  Ti63  1  0.61788127  0.01583371  0.88050663  1.0
  Ti  Ti64  1  0.63103237  0.44191214  0.32775552  1.0
  Ti  Ti65  1  0.63281220  0.36219111  0.79331439  1.0
  Ti  Ti66  1  0.63597805  0.98641769  0.64717027  1.0
  Ti  Ti67  1  0.65092977  0.19664176  0.55403968  1.0
  Ti  Ti68  1  0.65134642  0.73653239  0.61054003  1.0
  Ti  Ti69  1  0.65374781  0.71704500  0.24185580  1.0
  Ti  Ti70  1  0.71778929  0.08185337  0.14631106  1.0
  Ti  Ti71  1  0.72392279  0.37321126  0.08645650  1.0
  Ti  Ti72  1  0.74316283  0.88426624  0.41520678  1.0
  Ti  Ti73  1  0.74393008  0.84823408  0.86083672  1.0
  Ti  Ti74  1  0.75596977  0.25383625  0.31372206  1.0
  Ti  Ti75  1  0.76120072  0.58898340  0.40986030  1.0
  Ti  Ti76  1  0.78157773  0.85717463  0.09403086  1.0
  Ti  Ti77  1  0.78199155  0.52628855  0.64103139  1.0
  Ti  Ti78  1  0.79051450  0.11273901  0.75327466  1.0
  Ti  Ti79  1  0.79469401  0.56471448  0.16368749  1.0
  Ti  Ti80  1  0.80988616  0.47654329  0.87864473  1.0
  Ti  Ti81  1  0.81036076  0.36948986  0.47787106  1.0
  Ti  Ti82  1  0.81793636  0.30818066  0.68922000  1.0
  Ti  Ti83  1  0.81990376  0.25548765  0.92474748  1.0
  Ti  Ti84  1  0.82538616  0.69920823  0.74628778  1.0
  Ti  Ti85  1  0.83532544  0.67009198  0.97164010  1.0
  Ti  Ti86  1  0.84050375  0.91624957  0.63977695  1.0
  Ti  Ti87  1  0.85844496  0.01913334  0.93811976  1.0
  Ti  Ti88  1  0.86948775  0.07698160  0.32554015  1.0
  Ti  Ti89  1  0.87442853  0.74716025  0.51450098  1.0
  Ti  Ti90  1  0.88526855  0.13758551  0.54153054  1.0
  Ti  Ti91  1  0.92166254  0.69331631  0.29533923  1.0
  Ti  Ti92  1  0.92373416  0.21979393  0.14301922  1.0
  Ti  Ti93  1  0.92394517  0.44365208  0.29166181  1.0
  Ti  Ti94  1  0.94208251  0.89388156  0.25883938  1.0
  Ti  Ti95  1  0.95960547  0.42052095  0.05681342  1.0
  Ti  Ti96  1  0.98213727  0.57939889  0.49747073  1.0
  Ti  Ti97  1  0.99255842  0.81497759  0.86452316  1.0
  Ti  Ti98  1  0.99378589  0.93200255  0.45943264  1.0
  Ti  Ti99  1  0.99614931  0.39395107  0.59134357  1.0
