# generated using pymatgen
data_TiO
_symmetry_space_group_name_H-M   I4/mmm
_cell_length_a   2.82132200
_cell_length_b   2.82132200
_cell_length_c   17.64098645
_cell_angle_alpha   94.58655237
_cell_angle_beta   94.58655237
_cell_angle_gamma   90.00000003
_symmetry_Int_Tables_number   139
_chemical_formula_structural   TiO
_chemical_formula_sum   'Ti6 O6'
_cell_volume   139.51895524
_cell_formula_units_Z   6
loop_
 _symmetry_equiv_pos_site_id
 _symmetry_equiv_pos_as_xyz
  1  'x, y, z'
  2  '-x, -y, -z'
  3  '-y+z, x, z'
  4  'y-z, -x, -z'
  5  '-x+z, -y+z, z'
  6  'x-z, y-z, -z'
  7  'y, -x+z, z'
  8  '-y, x-z, -z'
  9  'x-z, -y, -z'
  10  '-x+z, y, z'
  11  '-y, -x, -z'
  12  'y, x, z'
  13  '-x, y-z, -z'
  14  'x, -y+z, z'
  15  'y-z, x-z, -z'
  16  '-y+z, -x+z, z'
loop_
 _atom_site_type_symbol
 _atom_site_label
 _atom_site_symmetry_multiplicity
 _atom_site_fract_x
 _atom_site_fract_y
 _atom_site_fract_z
 _atom_site_occupancy
  Ti  Ti0  2  0.13652300  0.13652300  0.27304600  1.0
  Ti  Ti1  2  0.28177800  0.28177800  0.56355600  1.0
  Ti  Ti2  2  0.42950300  0.42950300  0.85900600  1.0
  O  O3  2  0.05526300  0.05526300  0.11052600  1.0
  O  O4  2  0.20297600  0.20297600  0.40595200  1.0
  O  O5  2  0.34583400  0.34583400  0.69166800  1.0
