# generated using pymatgen
data_TiO
_symmetry_space_group_name_H-M   P1
_cell_length_a   10.24863692
_cell_length_b   10.66753434
_cell_length_c   10.89470760
_cell_angle_alpha   88.59174997
_cell_angle_beta   89.62525631
_cell_angle_gamma   88.99343963
_symmetry_Int_Tables_number   1
_chemical_formula_structural   TiO
_chemical_formula_sum   'Ti50 O50'
_cell_volume   1190.52744265
_cell_formula_units_Z   50
loop_
 _symmetry_equiv_pos_site_id
 _symmetry_equiv_pos_as_xyz
  1  'x, y, z'
loop_
 _atom_site_type_symbol
 _atom_site_label
 _atom_site_symmetry_multiplicity
 _atom_site_fract_x
 _atom_site_fract_y
 _atom_site_fract_z
 _atom_site_occupancy
  Ti  Ti0  1  0.03510800  0.25523600  0.75180500  1.0
  Ti  Ti1  1  0.04343800  0.80959800  0.85877600  1.0
  Ti  Ti2  1  0.04349800  0.52803900  0.82376900  1.0
  Ti  Ti3  1  0.05684600  0.01122600  0.67543400  1.0
  Ti  Ti4  1  0.10240700  0.10858400  0.14162400  1.0
  Ti  Ti5  1  0.11171700  0.73301500  0.62768200  1.0
  Ti  Ti6  1  0.14762400  0.36736300  0.00890100  1.0
  Ti  Ti7  1  0.17077000  0.50701700  0.26831400  1.0
  Ti  Ti8  1  0.23081200  0.44783400  0.57859500  1.0
  Ti  Ti9  1  0.24581600  0.98374400  0.37294000  1.0
  Ti  Ti10  1  0.24795900  0.05284300  0.85234300  1.0
  Ti  Ti11  1  0.25930300  0.74282500  0.33533000  1.0
  Ti  Ti12  1  0.27140000  0.18524500  0.60692500  1.0
  Ti  Ti13  1  0.27922700  0.68138700  0.85463800  1.0
  Ti  Ti14  1  0.28661000  0.88680000  0.09094600  1.0
  Ti  Ti15  1  0.29841000  0.22151200  0.31788800  1.0
  Ti  Ti16  1  0.31573700  0.90740600  0.63761900  1.0
  Ti  Ti17  1  0.35761300  0.33917600  0.82851600  1.0
  Ti  Ti18  1  0.36379300  0.15401500  0.04305900  1.0
  Ti  Ti19  1  0.38075900  0.37891400  0.13788300  1.0
  Ti  Ti20  1  0.40682700  0.62296800  0.15338500  1.0
  Ti  Ti21  1  0.41869800  0.48927200  0.38056100  1.0
  Ti  Ti22  1  0.48571600  0.34930000  0.60378300  1.0
  Ti  Ti23  1  0.48930700  0.03243800  0.22641100  1.0
  Ti  Ti24  1  0.49996500  0.68452900  0.65368100  1.0
  Ti  Ti25  1  0.50992600  0.07963400  0.70452100  1.0
  Ti  Ti26  1  0.53915100  0.77774500  0.96517800  1.0
  Ti  Ti27  1  0.54127200  0.91693200  0.47721300  1.0
  Ti  Ti28  1  0.59603700  0.04685600  0.95805500  1.0
  Ti  Ti29  1  0.61931300  0.74239500  0.31073800  1.0
  Ti  Ti30  1  0.64528600  0.53984500  0.87631300  1.0
  Ti  Ti31  1  0.65164800  0.25398500  0.13722700  1.0
  Ti  Ti32  1  0.65882400  0.53964100  0.50278900  1.0
  Ti  Ti33  1  0.69324500  0.89628200  0.76873500  1.0
  Ti  Ti34  1  0.70581600  0.51969600  0.14943300  1.0
  Ti  Ti35  1  0.70882500  0.26311700  0.44842700  1.0
  Ti  Ti36  1  0.72790900  0.36370900  0.71342000  1.0
  Ti  Ti37  1  0.76721600  0.99412000  0.16884900  1.0
  Ti  Ti38  1  0.77447000  0.72509300  0.03472700  1.0
  Ti  Ti39  1  0.80309800  0.11306400  0.65330300  1.0
  Ti  Ti40  1  0.86698100  0.36460400  0.97269000  1.0
  Ti  Ti41  1  0.87819400  0.58209200  0.63257100  1.0
  Ti  Ti42  1  0.88082200  0.07472500  0.91610200  1.0
  Ti  Ti43  1  0.90568100  0.58665700  0.34256600  1.0
  Ti  Ti44  1  0.91860800  0.12211000  0.39184100  1.0
  Ti  Ti45  1  0.93636800  0.36955600  0.51882400  1.0
  Ti  Ti46  1  0.93773900  0.33627400  0.23077500  1.0
  Ti  Ti47  1  0.94040300  0.85856000  0.45047100  1.0
  Ti  Ti48  1  0.98146700  0.83254500  0.19174300  1.0
  Ti  Ti49  1  0.99897300  0.57726900  0.08218000  1.0
  O  O50  1  0.02483700  0.43121900  0.36907700  1.0
  O  O51  1  0.06165300  0.08941300  0.85068300  1.0
  O  O52  1  0.06933000  0.66605000  0.24716300  1.0
  O  O53  1  0.09113500  0.16814200  0.32046700  1.0
  O  O54  1  0.09276500  0.55222600  0.63799200  1.0
  O  O55  1  0.11194200  0.30231600  0.58912700  1.0
  O  O56  1  0.12191200  0.82819800  0.45220900  1.0
  O  O57  1  0.15507600  0.91661000  0.22087000  1.0
  O  O58  1  0.19589600  0.03141200  0.54692400  1.0
  O  O59  1  0.20364100  0.87657300  0.92419400  1.0
  O  O60  1  0.23093100  0.25488300  0.14284900  1.0
  O  O61  1  0.23906300  0.49147300  0.85589100  1.0
  O  O62  1  0.24052000  0.51040000  0.10123500  1.0
  O  O63  1  0.24696900  0.56152700  0.43412000  1.0
  O  O64  1  0.30534100  0.71616500  0.66952400  1.0
  O  O65  1  0.33299500  0.31449400  0.47430600  1.0
  O  O66  1  0.35424400  0.72546800  0.01533200  1.0
  O  O67  1  0.36420400  0.85390500  0.46671800  1.0
  O  O68  1  0.41829200  0.07597400  0.38941600  1.0
  O  O69  1  0.43758900  0.13212800  0.86973600  1.0
  O  O70  1  0.44357600  0.67018700  0.32758300  1.0
  O  O71  1  0.45669000  0.95550700  0.06003100  1.0
  O  O72  1  0.46844600  0.21870900  0.20492400  1.0
  O  O73  1  0.48142700  0.64958300  0.82932600  1.0
  O  O74  1  0.52102800  0.88383600  0.67179800  1.0
  O  O75  1  0.52221400  0.46734900  0.21218300  1.0
  O  O76  1  0.53821200  0.38967700  0.78099400  1.0
  O  O77  1  0.57119800  0.38747800  0.43577200  1.0
  O  O78  1  0.59504400  0.70662300  0.13416200  1.0
  O  O79  1  0.61392100  0.73373800  0.50171100  1.0
  O  O80  1  0.63287700  0.21581800  0.62892400  1.0
  O  O81  1  0.63407000  0.92871100  0.30052100  1.0
  O  O82  1  0.67073800  0.40219500  0.01226400  1.0
  O  O83  1  0.69224400  0.56484900  0.68769800  1.0
  O  O84  1  0.69953400  0.73596300  0.86368300  1.0
  O  O85  1  0.70124500  0.90158600  0.03054900  1.0
  O  O86  1  0.71893400  0.58706400  0.33080800  1.0
  O  O87  1  0.74504800  0.14220700  0.02586700  1.0
  O  O88  1  0.77289000  0.19903800  0.27956100  1.0
  O  O89  1  0.84083800  0.22741100  0.81591200  1.0
  O  O90  1  0.86032400  0.55047500  0.95204200  1.0
  O  O91  1  0.87721800  0.95250600  0.77623200  1.0
  O  O92  1  0.90123500  0.96397100  0.30326600  1.0
  O  O93  1  0.91838300  0.69392400  0.50001500  1.0
  O  O94  1  0.91890100  0.41801000  0.70988100  1.0
  O  O95  1  0.92894300  0.01957700  0.54000900  1.0
  O  O96  1  0.95319300  0.00090900  0.07776400  1.0
  O  O97  1  0.95618900  0.69716800  0.75298800  1.0
  O  O98  1  0.96620400  0.76123200  0.02748800  1.0
  O  O99  1  0.99456300  0.24938100  0.06317300  1.0
