# generated using pymatgen
data_TiO
_symmetry_space_group_name_H-M   P1
_cell_length_a   10.32712318
_cell_length_b   10.67232082
_cell_length_c   10.85689049
_cell_angle_alpha   81.74975784
_cell_angle_beta   87.65174970
_cell_angle_gamma   85.79985065
_symmetry_Int_Tables_number   1
_chemical_formula_structural   TiO
_chemical_formula_sum   'Ti50 O50'
_cell_volume   1180.45853474
_cell_formula_units_Z   50
loop_
 _symmetry_equiv_pos_site_id
 _symmetry_equiv_pos_as_xyz
  1  'x, y, z'
loop_
 _atom_site_type_symbol
 _atom_site_label
 _atom_site_symmetry_multiplicity
 _atom_site_fract_x
 _atom_site_fract_y
 _atom_site_fract_z
 _atom_site_occupancy
  Ti  Ti0  1  0.01354700  0.14115100  0.68743500  1.0
  Ti  Ti1  1  0.02087200  0.06025700  0.14633700  1.0
  Ti  Ti2  1  0.02932900  0.22886900  0.93328200  1.0
  Ti  Ti3  1  0.10957600  0.39730700  0.66405400  1.0
  Ti  Ti4  1  0.14637300  0.95892600  0.94427500  1.0
  Ti  Ti5  1  0.16041300  0.39600000  0.13509700  1.0
  Ti  Ti6  1  0.17651400  0.87540300  0.68672500  1.0
  Ti  Ti7  1  0.18904300  0.67864100  0.06463200  1.0
  Ti  Ti8  1  0.19285200  0.44419600  0.38716700  1.0
  Ti  Ti9  1  0.22274400  0.14545300  0.52528700  1.0
  Ti  Ti10  1  0.22328700  0.64638300  0.53841600  1.0
  Ti  Ti11  1  0.22991000  0.89405100  0.20425700  1.0
  Ti  Ti12  1  0.23233400  0.14635800  0.27252100  1.0
  Ti  Ti13  1  0.24016000  0.63681700  0.81563300  1.0
  Ti  Ti14  1  0.27481300  0.13257900  0.77158500  1.0
  Ti  Ti15  1  0.28528400  0.14519600  0.02905100  1.0
  Ti  Ti16  1  0.33518600  0.65221100  0.29212900  1.0
  Ti  Ti17  1  0.35149400  0.40300900  0.95250100  1.0
  Ti  Ti18  1  0.42992500  0.37705900  0.50470100  1.0
  Ti  Ti19  1  0.44804700  0.90472900  0.40801200  1.0
  Ti  Ti20  1  0.45991100  0.81352900  0.71788300  1.0
  Ti  Ti21  1  0.46702600  0.41831400  0.19657600  1.0
  Ti  Ti22  1  0.47198500  0.72097900  0.97431300  1.0
  Ti  Ti23  1  0.49455400  0.07540700  0.58359500  1.0
  Ti  Ti24  1  0.50525300  0.15378000  0.25835800  1.0
  Ti  Ti25  1  0.52072200  0.97259200  0.87826500  1.0
  Ti  Ti26  1  0.52367500  0.26803300  0.75784100  1.0
  Ti  Ti27  1  0.52666300  0.92422200  0.13402400  1.0
  Ti  Ti28  1  0.52828500  0.51641700  0.81379800  1.0
  Ti  Ti29  1  0.56441800  0.58443000  0.53969200  1.0
  Ti  Ti30  1  0.67998000  0.84640000  0.57511800  1.0
  Ti  Ti31  1  0.68412100  0.39541800  0.37530300  1.0
  Ti  Ti32  1  0.69289200  0.48035700  0.07322000  1.0
  Ti  Ti33  1  0.70302100  0.93204500  0.31630400  1.0
  Ti  Ti34  1  0.72592000  0.67004600  0.83386200  1.0
  Ti  Ti35  1  0.75016600  0.08946200  0.70437900  1.0
  Ti  Ti36  1  0.76032000  0.69203000  0.33826700  1.0
  Ti  Ti37  1  0.77212200  0.17931100  0.21504700  1.0
  Ti  Ti38  1  0.78184100  0.06645200  0.96671600  1.0
  Ti  Ti39  1  0.79533700  0.73856200  0.07482700  1.0
  Ti  Ti40  1  0.84148400  0.38055000  0.77975500  1.0
  Ti  Ti41  1  0.91200400  0.51360300  0.52719200  1.0
  Ti  Ti42  1  0.93678600  0.83171400  0.86579500  1.0
  Ti  Ti43  1  0.93681800  0.89823700  0.60109900  1.0
  Ti  Ti44  1  0.96185700  0.07566300  0.41637600  1.0
  Ti  Ti45  1  0.98047400  0.31278100  0.43476100  1.0
  Ti  Ti46  1  0.98243800  0.54063800  0.95821900  1.0
  Ti  Ti47  1  0.98500900  0.61068700  0.21302100  1.0
  Ti  Ti48  1  0.98921400  0.64917900  0.68816000  1.0
  Ti  Ti49  1  0.99134900  0.82998800  0.34562800  1.0
  O  O50  1  0.02227600  0.40212200  0.84559400  1.0
  O  O51  1  0.04372000  0.42288100  0.27958000  1.0
  O  O52  1  0.07687300  0.77237400  0.55326100  1.0
  O  O53  1  0.08240900  0.01998500  0.56664100  1.0
  O  O54  1  0.10944200  0.99499800  0.31674100  1.0
  O  O55  1  0.11488900  0.22061100  0.12079100  1.0
  O  O56  1  0.13590100  0.73270700  0.23750000  1.0
  O  O57  1  0.18591700  0.79894700  0.87828700  1.0
  O  O58  1  0.18797100  0.51584700  0.96817500  1.0
  O  O59  1  0.25249500  0.45581900  0.55665600  1.0
  O  O60  1  0.27799400  0.51506800  0.20380600  1.0
  O  O61  1  0.30736200  0.80198300  0.38328900  1.0
  O  O62  1  0.32040200  0.72463000  0.65753400  1.0
  O  O63  1  0.33247900  0.98352600  0.66198100  1.0
  O  O64  1  0.33550900  0.00336800  0.92121800  1.0
  O  O65  1  0.35325700  0.27642900  0.14219600  1.0
  O  O66  1  0.36259100  0.76212100  0.12070900  1.0
  O  O67  1  0.36299000  0.22557700  0.61501000  1.0
  O  O68  1  0.36876400  0.24890000  0.87577700  1.0
  O  O69  1  0.36964800  0.02711700  0.18471000  1.0
  O  O70  1  0.38017200  0.08406300  0.41359100  1.0
  O  O71  1  0.42494100  0.57696600  0.43817500  1.0
  O  O72  1  0.48881900  0.45037100  0.65559000  1.0
  O  O73  1  0.50024500  0.48784800  0.00706000  1.0
  O  O74  1  0.51958000  0.30349700  0.36280400  1.0
  O  O75  1  0.59244700  0.77576900  0.43016000  1.0
  O  O76  1  0.60193300  0.68139700  0.67814600  1.0
  O  O77  1  0.60398300  0.95083900  0.70320600  1.0
  O  O78  1  0.61581000  0.20896500  0.60655800  1.0
  O  O79  1  0.62545200  0.52168700  0.24595000  1.0
  O  O80  1  0.63156400  0.12186400  0.86102400  1.0
  O  O81  1  0.64050200  0.31064800  0.15002000  1.0
  O  O82  1  0.65050100  0.05931500  0.14372600  1.0
  O  O83  1  0.65097500  0.66320600  0.01137600  1.0
  O  O84  1  0.65832300  0.36871000  0.81069900  1.0
  O  O85  1  0.67345800  0.80656500  0.19683100  1.0
  O  O86  1  0.72885000  0.53361300  0.47010300  1.0
  O  O87  1  0.79582300  0.02164000  0.54315100  1.0
  O  O88  1  0.80320000  0.49910500  0.90455800  1.0
  O  O89  1  0.81874800  0.82005000  0.44726600  1.0
  O  O90  1  0.82258100  0.25003300  0.36167600  1.0
  O  O91  1  0.83070900  0.78095500  0.71180400  1.0
  O  O92  1  0.85836800  0.54072000  0.11488900  1.0
  O  O93  1  0.87309000  0.17917000  0.81580700  1.0
  O  O94  1  0.87467100  0.00382800  0.27097100  1.0
  O  O95  1  0.87725600  0.18695200  0.05745300  1.0
  O  O96  1  0.92785400  0.33001700  0.61711600  1.0
  O  O97  1  0.95434500  0.64044100  0.38889000  1.0
  O  O98  1  0.95675100  0.97113000  0.98511600  1.0
  O  O99  1  0.99384800  0.71498200  0.03211300  1.0
