# generated using pymatgen
data_TiO
_symmetry_space_group_name_H-M   P1
_cell_length_a   10.42797597
_cell_length_b   10.79911345
_cell_length_c   10.72396859
_cell_angle_alpha   90.14973448
_cell_angle_beta   90.05656214
_cell_angle_gamma   86.45157479
_symmetry_Int_Tables_number   1
_chemical_formula_structural   TiO
_chemical_formula_sum   'Ti50 O50'
_cell_volume   1205.33736051
_cell_formula_units_Z   50
loop_
 _symmetry_equiv_pos_site_id
 _symmetry_equiv_pos_as_xyz
  1  'x, y, z'
loop_
 _atom_site_type_symbol
 _atom_site_label
 _atom_site_symmetry_multiplicity
 _atom_site_fract_x
 _atom_site_fract_y
 _atom_site_fract_z
 _atom_site_occupancy
  Ti  Ti0  1  0.00923500  0.02548600  0.74866000  1.0
  Ti  Ti1  1  0.04124300  0.43106400  0.21023000  1.0
  Ti  Ti2  1  0.06110800  0.63489600  0.45157800  1.0
  Ti  Ti3  1  0.07051400  0.72222400  0.19853200  1.0
  Ti  Ti4  1  0.09975300  0.18256100  0.95164000  1.0
  Ti  Ti5  1  0.11831100  0.57774600  0.97849200  1.0
  Ti  Ti6  1  0.13478200  0.43179500  0.76622400  1.0
  Ti  Ti7  1  0.14039600  0.37187900  0.47840900  1.0
  Ti  Ti8  1  0.14307500  0.92643100  0.50650200  1.0
  Ti  Ti9  1  0.17886600  0.99172400  0.24521600  1.0
  Ti  Ti10  1  0.18351000  0.78376500  0.83830600  1.0
  Ti  Ti11  1  0.24430400  0.37604600  0.03842900  1.0
  Ti  Ti12  1  0.25582300  0.53095200  0.27576900  1.0
  Ti  Ti13  1  0.29209300  0.69879900  0.62629000  1.0
  Ti  Ti14  1  0.30513300  0.97993300  0.76675700  1.0
  Ti  Ti15  1  0.30741800  0.76761100  0.33030900  1.0
  Ti  Ti16  1  0.31578100  0.78147300  0.07503900  1.0
  Ti  Ti17  1  0.31785700  0.16245500  0.59820800  1.0
  Ti  Ti18  1  0.35406600  0.25923700  0.84006600  1.0
  Ti  Ti19  1  0.37536600  0.52994700  0.82070500  1.0
  Ti  Ti20  1  0.38448200  0.22522400  0.37387500  1.0
  Ti  Ti21  1  0.39349800  0.98528300  0.40776300  1.0
  Ti  Ti22  1  0.44080700  0.55453100  0.46580500  1.0
  Ti  Ti23  1  0.46133200  0.55737800  0.06832900  1.0
  Ti  Ti24  1  0.48926400  0.75573400  0.86026400  1.0
  Ti  Ti25  1  0.50212400  0.81812000  0.58769800  1.0
  Ti  Ti26  1  0.51898400  0.39773700  0.27308900  1.0
  Ti  Ti27  1  0.57237600  0.70073600  0.30530000  1.0
  Ti  Ti28  1  0.57331200  0.18435700  0.70713500  1.0
  Ti  Ti29  1  0.60286400  0.38354800  0.90851600  1.0
  Ti  Ti30  1  0.60702500  0.83303100  0.07980300  1.0
  Ti  Ti31  1  0.63274400  0.45130800  0.63283400  1.0
  Ti  Ti32  1  0.64415800  0.22190800  0.45222200  1.0
  Ti  Ti33  1  0.68374400  0.08888000  0.20943200  1.0
  Ti  Ti34  1  0.69128500  0.94754300  0.43740700  1.0
  Ti  Ti35  1  0.71536000  0.13445300  0.94680300  1.0
  Ti  Ti36  1  0.72871800  0.96208100  0.72856300  1.0
  Ti  Ti37  1  0.75245700  0.59924200  0.85888200  1.0
  Ti  Ti38  1  0.75763000  0.32597200  0.12059400  1.0
  Ti  Ti39  1  0.78009000  0.66912900  0.47073700  1.0
  Ti  Ti40  1  0.79411700  0.62186900  0.15876100  1.0
  Ti  Ti41  1  0.81261400  0.40308500  0.41335100  1.0
  Ti  Ti42  1  0.83445400  0.25239100  0.67167100  1.0
  Ti  Ti43  1  0.83545500  0.85165900  0.24495700  1.0
  Ti  Ti44  1  0.88909300  0.36350900  0.88374700  1.0
  Ti  Ti45  1  0.90313500  0.49879500  0.63698500  1.0
  Ti  Ti46  1  0.92784200  0.13515100  0.47007100  1.0
  Ti  Ti47  1  0.94908700  0.81501000  0.63751700  1.0
  Ti  Ti48  1  0.96772300  0.15692000  0.17887000  1.0
  Ti  Ti49  1  0.97866000  0.92354300  0.98817100  1.0
  O  O50  1  0.05192400  0.09285200  0.34088100  1.0
  O  O51  1  0.07070500  0.39400700  0.93563700  1.0
  O  O52  1  0.09053200  0.50643100  0.59296200  1.0
  O  O53  1  0.09449100  0.03524700  0.07562400  1.0
  O  O54  1  0.11402000  0.27084800  0.12992600  1.0
  O  O55  1  0.11675200  0.84353300  0.34406600  1.0
  O  O56  1  0.11812400  0.76949400  0.02240600  1.0
  O  O57  1  0.17601300  0.05469700  0.64637400  1.0
  O  O58  1  0.19284300  0.60123300  0.79371900  1.0
  O  O59  1  0.24254000  0.30987100  0.68191300  1.0
  O  O60  1  0.25531500  0.62485200  0.45007300  1.0
  O  O61  1  0.26633200  0.11553600  0.88561000  1.0
  O  O62  1  0.31332100  0.09513200  0.27453900  1.0
  O  O63  1  0.31759700  0.84324600  0.51147800  1.0
  O  O64  1  0.33932200  0.86920000  0.91643100  1.0
  O  O65  1  0.34255300  0.40616100  0.39913300  1.0
  O  O66  1  0.36490600  0.42594100  0.16204500  1.0
  O  O67  1  0.42806200  0.53585600  0.64852000  1.0
  O  O68  1  0.42980600  0.00594600  0.61241600  1.0
  O  O69  1  0.44403500  0.82234600  0.20016300  1.0
  O  O70  1  0.47890600  0.23476100  0.54608300  1.0
  O  O71  1  0.54075600  0.21284800  0.88770800  1.0
  O  O72  1  0.54111800  0.86062200  0.41106900  1.0
  O  O73  1  0.54616200  0.08912800  0.35744400  1.0
  O  O74  1  0.54818100  0.57356400  0.88852400  1.0
  O  O75  1  0.58431900  0.40173100  0.09425800  1.0
  O  O76  1  0.58934700  0.84846600  0.74365100  1.0
  O  O77  1  0.59194400  0.65484300  0.49520500  1.0
  O  O78  1  0.60845400  0.41356000  0.45187600  1.0
  O  O79  1  0.60908800  0.64730800  0.13004000  1.0
  O  O80  1  0.62093200  0.01428800  0.05911600  1.0
  O  O81  1  0.66710200  0.27054000  0.27026300  1.0
  O  O82  1  0.69881400  0.75239700  0.93864700  1.0
  O  O83  1  0.70726200  0.09194600  0.59604700  1.0
  O  O84  1  0.73225000  0.59306900  0.67877100  1.0
  O  O85  1  0.74388500  0.55399200  0.31684600  1.0
  O  O86  1  0.77206100  0.83490400  0.56398400  1.0
  O  O87  1  0.78189500  0.48249100  0.00028100  1.0
  O  O88  1  0.78748100  0.08794800  0.37209600  1.0
  O  O89  1  0.83642100  0.00238300  0.87406700  1.0
  O  O90  1  0.86235200  0.00384300  0.15212200  1.0
  O  O91  1  0.88726200  0.22067700  0.01125100  1.0
  O  O92  1  0.90308200  0.32155300  0.26050600  1.0
  O  O93  1  0.92270600  0.71656300  0.34368400  1.0
  O  O94  1  0.93211100  0.55241000  0.81622800  1.0
  O  O95  1  0.96361800  0.97909500  0.55833200  1.0
  O  O96  1  0.96471600  0.30959700  0.52151600  1.0
  O  O97  1  0.97772100  0.57939000  0.11725500  1.0
  O  O98  1  0.99044500  0.20509600  0.79190000  1.0
  O  O99  1  0.99935700  0.83503100  0.81199500  1.0
