# generated using pymatgen
data_TiO
_symmetry_space_group_name_H-M   P1
_cell_length_a   10.42649089
_cell_length_b   10.67691342
_cell_length_c   10.75088039
_cell_angle_alpha   91.88886874
_cell_angle_beta   90.57623039
_cell_angle_gamma   90.65292365
_symmetry_Int_Tables_number   1
_chemical_formula_structural   TiO
_chemical_formula_sum   'Ti50 O50'
_cell_volume   1196.02432504
_cell_formula_units_Z   50
loop_
 _symmetry_equiv_pos_site_id
 _symmetry_equiv_pos_as_xyz
  1  'x, y, z'
loop_
 _atom_site_type_symbol
 _atom_site_label
 _atom_site_symmetry_multiplicity
 _atom_site_fract_x
 _atom_site_fract_y
 _atom_site_fract_z
 _atom_site_occupancy
  Ti  Ti0  1  0.03063100  0.92052300  0.44600100  1.0
  Ti  Ti1  1  0.04871700  0.23932800  0.07480700  1.0
  Ti  Ti2  1  0.06370500  0.15869700  0.35222100  1.0
  Ti  Ti3  1  0.07018600  0.64314100  0.45982000  1.0
  Ti  Ti4  1  0.11748100  0.43220100  0.24747300  1.0
  Ti  Ti5  1  0.11880100  0.91876400  0.96579400  1.0
  Ti  Ti6  1  0.13558900  0.70120600  0.13052400  1.0
  Ti  Ti7  1  0.14338700  0.63441200  0.80084500  1.0
  Ti  Ti8  1  0.16238200  0.23375600  0.82135900  1.0
  Ti  Ti9  1  0.17168000  0.45847800  0.97224900  1.0
  Ti  Ti10  1  0.19787600  0.83892700  0.64430500  1.0
  Ti  Ti11  1  0.20347500  0.07498800  0.56589500  1.0
  Ti  Ti12  1  0.22697700  0.36439700  0.55885400  1.0
  Ti  Ti13  1  0.26481900  0.85411000  0.37424500  1.0
  Ti  Ti14  1  0.32968000  0.26503900  0.07026400  1.0
  Ti  Ti15  1  0.33045300  0.60825700  0.63089500  1.0
  Ti  Ti16  1  0.35533500  0.57008900  0.37989300  1.0
  Ti  Ti17  1  0.35610100  0.58865600  0.11038200  1.0
  Ti  Ti18  1  0.35948600  0.29916600  0.34733000  1.0
  Ti  Ti19  1  0.37877000  0.91161800  0.10867500  1.0
  Ti  Ti20  1  0.42202600  0.13381300  0.69374000  1.0
  Ti  Ti21  1  0.42475500  0.39884100  0.80021300  1.0
  Ti  Ti22  1  0.43060100  0.91724900  0.81013500  1.0
  Ti  Ti23  1  0.43216400  0.67411200  0.87152000  1.0
  Ti  Ti24  1  0.46238200  0.03454600  0.46314500  1.0
  Ti  Ti25  1  0.53167700  0.15480200  0.91413400  1.0
  Ti  Ti26  1  0.56011200  0.46735700  0.00291100  1.0
  Ti  Ti27  1  0.56128200  0.13604800  0.18071100  1.0
  Ti  Ti28  1  0.56545600  0.78042200  0.60143900  1.0
  Ti  Ti29  1  0.57356600  0.48756500  0.56540900  1.0
  Ti  Ti30  1  0.61375900  0.90199400  0.30013100  1.0
  Ti  Ti31  1  0.62481300  0.73365500  0.12894200  1.0
  Ti  Ti32  1  0.63887500  0.43887900  0.26434900  1.0
  Ti  Ti33  1  0.67175400  0.03290900  0.72612500  1.0
  Ti  Ti34  1  0.67663200  0.23095500  0.43290200  1.0
  Ti  Ti35  1  0.69986400  0.32072400  0.74444800  1.0
  Ti  Ti36  1  0.71474600  0.59437300  0.79259000  1.0
  Ti  Ti37  1  0.73505300  0.98137800  0.03264600  1.0
  Ti  Ti38  1  0.73738400  0.26542300  0.02983800  1.0
  Ti  Ti39  1  0.74839600  0.00928000  0.48708700  1.0
  Ti  Ti40  1  0.78697300  0.62369900  0.43991500  1.0
  Ti  Ti41  1  0.83110500  0.12077100  0.24662200  1.0
  Ti  Ti42  1  0.85316700  0.83577900  0.27160300  1.0
  Ti  Ti43  1  0.88272800  0.55141900  0.12799700  1.0
  Ti  Ti44  1  0.91319300  0.74284800  0.94581200  1.0
  Ti  Ti45  1  0.91478900  0.11494700  0.88078800  1.0
  Ti  Ti46  1  0.91692100  0.84819400  0.66019100  1.0
  Ti  Ti47  1  0.92015000  0.41389100  0.88487600  1.0
  Ti  Ti48  1  0.95051400  0.13290900  0.60587200  1.0
  Ti  Ti49  1  0.98947000  0.42841400  0.64596400  1.0
  O  O50  1  0.01094900  0.42607600  0.06652500  1.0
  O  O51  1  0.03630500  0.60345800  0.25657400  1.0
  O  O52  1  0.08519200  0.81952600  0.80309800  1.0
  O  O53  1  0.10029900  0.10287200  0.94361800  1.0
  O  O54  1  0.14561500  0.53461900  0.62904400  1.0
  O  O55  1  0.17012200  0.31267000  0.38984500  1.0
  O  O56  1  0.18701700  0.02332600  0.38248100  1.0
  O  O57  1  0.19029400  0.88017400  0.13430500  1.0
  O  O58  1  0.20194000  0.19951800  0.17886700  1.0
  O  O59  1  0.24480100  0.64238700  0.96396500  1.0
  O  O60  1  0.24677500  0.71543000  0.49823900  1.0
  O  O61  1  0.27228700  0.00235800  0.71650500  1.0
  O  O62  1  0.30040700  0.69790200  0.26144200  1.0
  O  O63  1  0.30398000  0.90901900  0.93593700  1.0
  O  O64  1  0.30916800  0.44019800  0.23688500  1.0
  O  O65  1  0.34480000  0.19891300  0.51998000  1.0
  O  O66  1  0.35094600  0.22397800  0.85849800  1.0
  O  O67  1  0.36826200  0.42956700  0.99392000  1.0
  O  O68  1  0.39433200  0.43295800  0.62572000  1.0
  O  O69  1  0.41495700  0.09843900  0.06341900  1.0
  O  O70  1  0.41781500  0.94382600  0.29829600  1.0
  O  O71  1  0.45286000  0.74935900  0.04552100  1.0
  O  O72  1  0.47432600  0.64775100  0.50758600  1.0
  O  O73  1  0.49574100  0.42463800  0.39400900  1.0
  O  O74  1  0.49628800  0.95473600  0.64447600  1.0
  O  O75  1  0.50455300  0.18029700  0.35158800  1.0
  O  O76  1  0.54126200  0.56599800  0.17446200  1.0
  O  O77  1  0.57700700  0.94127300  0.12169000  1.0
  O  O78  1  0.60064200  0.97226400  0.89047200  1.0
  O  O79  1  0.60631400  0.12599400  0.56978600  1.0
  O  O80  1  0.67968000  0.73728400  0.32324900  1.0
  O  O81  1  0.69516300  0.62645500  0.60440500  1.0
  O  O82  1  0.70134800  0.26365400  0.24542500  1.0
  O  O83  1  0.70343500  0.35652000  0.56787500  1.0
  O  O84  1  0.71979200  0.17436100  0.85705800  1.0
  O  O85  1  0.72698700  0.43590900  0.08984500  1.0
  O  O86  1  0.72828800  0.87947400  0.61467200  1.0
  O  O87  1  0.79986100  0.52075900  0.29230000  1.0
  O  O88  1  0.82329600  0.73222000  0.11788500  1.0
  O  O89  1  0.83548000  0.57025700  0.93897400  1.0
  O  O90  1  0.84866400  0.72798700  0.77260900  1.0
  O  O91  1  0.86146600  0.16545600  0.43542100  1.0
  O  O92  1  0.86941900  0.13261300  0.06627400  1.0
  O  O93  1  0.88532500  0.01807000  0.73163400  1.0
  O  O94  1  0.90807300  0.77329000  0.45112900  1.0
  O  O95  1  0.91146300  0.92650900  0.96654700  1.0
  O  O96  1  0.91247400  0.28282900  0.73593500  1.0
  O  O97  1  0.92848400  0.53083800  0.51217700  1.0
  O  O98  1  0.95901700  0.99152400  0.28975000  1.0
  O  O99  1  0.97536300  0.28120100  0.24253500  1.0
