# generated using pymatgen
data_TiO
_symmetry_space_group_name_H-M   P1
_cell_length_a   10.38745655
_cell_length_b   10.60244792
_cell_length_c   11.08431524
_cell_angle_alpha   87.64343591
_cell_angle_beta   89.76972150
_cell_angle_gamma   89.96445805
_symmetry_Int_Tables_number   1
_chemical_formula_structural   TiO
_chemical_formula_sum   'Ti50 O50'
_cell_volume   1219.70060986
_cell_formula_units_Z   50
loop_
 _symmetry_equiv_pos_site_id
 _symmetry_equiv_pos_as_xyz
  1  'x, y, z'
loop_
 _atom_site_type_symbol
 _atom_site_label
 _atom_site_symmetry_multiplicity
 _atom_site_fract_x
 _atom_site_fract_y
 _atom_site_fract_z
 _atom_site_occupancy
  Ti  Ti0  1  0.03677000  0.94858900  0.20676100  1.0
  Ti  Ti1  1  0.06183700  0.86749900  0.45931400  1.0
  Ti  Ti2  1  0.07819600  0.19904600  0.58423100  1.0
  Ti  Ti3  1  0.08521100  0.44303400  0.17875700  1.0
  Ti  Ti4  1  0.12807400  0.54698200  0.44421100  1.0
  Ti  Ti5  1  0.13077200  0.70767700  0.22241700  1.0
  Ti  Ti6  1  0.14073600  0.84780800  0.77811900  1.0
  Ti  Ti7  1  0.17141200  0.10398800  0.92397800  1.0
  Ti  Ti8  1  0.17350200  0.62512300  0.90305100  1.0
  Ti  Ti9  1  0.19635300  0.34982800  0.99659600  1.0
  Ti  Ti10  1  0.24225500  0.52109400  0.68350400  1.0
  Ti  Ti11  1  0.24457600  0.10743300  0.18481700  1.0
  Ti  Ti12  1  0.25934600  0.84569900  0.03545500  1.0
  Ti  Ti13  1  0.27276900  0.04276500  0.46211800  1.0
  Ti  Ti14  1  0.29624100  0.10272400  0.69312100  1.0
  Ti  Ti15  1  0.30048000  0.32499200  0.51620300  1.0
  Ti  Ti16  1  0.34472900  0.85769900  0.28294200  1.0
  Ti  Ti17  1  0.37382500  0.38400800  0.18910500  1.0
  Ti  Ti18  1  0.38179800  0.75185700  0.58091600  1.0
  Ti  Ti19  1  0.38608200  0.31552500  0.82191500  1.0
  Ti  Ti20  1  0.42309200  0.65159300  0.13625100  1.0
  Ti  Ti21  1  0.43853200  0.04646300  0.89800700  1.0
  Ti  Ti22  1  0.45859100  0.71461300  0.80897400  1.0
  Ti  Ti23  1  0.47285700  0.51916700  0.39003400  1.0
  Ti  Ti24  1  0.49376000  0.48732800  0.63216500  1.0
  Ti  Ti25  1  0.53429600  0.95483000  0.63998300  1.0
  Ti  Ti26  1  0.55105200  0.26213900  0.48897800  1.0
  Ti  Ti27  1  0.56089500  0.01449400  0.37349800  1.0
  Ti  Ti28  1  0.56862400  0.37548700  0.98553900  1.0
  Ti  Ti29  1  0.59559500  0.75210200  0.36801300  1.0
  Ti  Ti30  1  0.62049700  0.87980900  0.13224800  1.0
  Ti  Ti31  1  0.66492200  0.70345400  0.63393600  1.0
  Ti  Ti32  1  0.68773000  0.86832800  0.86106200  1.0
  Ti  Ti33  1  0.70403900  0.16551700  0.95978000  1.0
  Ti  Ti34  1  0.72262200  0.17024200  0.24942800  1.0
  Ti  Ti35  1  0.72624400  0.38211200  0.76722800  1.0
  Ti  Ti36  1  0.72785500  0.49657200  0.16241200  1.0
  Ti  Ti37  1  0.74950600  0.46135900  0.49960500  1.0
  Ti  Ti38  1  0.80336100  0.14988400  0.50566200  1.0
  Ti  Ti39  1  0.81243800  0.92769500  0.34130300  1.0
  Ti  Ti40  1  0.83368800  0.64226000  0.85204600  1.0
  Ti  Ti41  1  0.84186700  0.63649900  0.34796800  1.0
  Ti  Ti42  1  0.87432000  0.72985200  0.12898800  1.0
  Ti  Ti43  1  0.89540500  0.92970500  0.67324700  1.0
  Ti  Ti44  1  0.90033700  0.41284800  0.96973400  1.0
  Ti  Ti45  1  0.90444700  0.33770500  0.34083000  1.0
  Ti  Ti46  1  0.93300900  0.17417200  0.82327400  1.0
  Ti  Ti47  1  0.94599200  0.19114100  0.09709300  1.0
  Ti  Ti48  1  0.94741200  0.90196000  0.93139200  1.0
  Ti  Ti49  1  0.96907900  0.46512300  0.64171700  1.0
  O  O50  1  0.00919200  0.71985300  0.86109000  1.0
  O  O51  1  0.04117000  0.82365300  0.62845800  1.0
  O  O52  1  0.05102200  0.81472600  0.08136300  1.0
  O  O53  1  0.06728300  0.49647400  0.99679200  1.0
  O  O54  1  0.07767100  0.40583800  0.35062300  1.0
  O  O55  1  0.08872400  0.06624200  0.07840400  1.0
  O  O56  1  0.12341900  0.17091100  0.76011300  1.0
  O  O57  1  0.13873200  0.38611200  0.59242700  1.0
  O  O58  1  0.16349200  0.97787000  0.33224500  1.0
  O  O59  1  0.17050000  0.72467800  0.39421900  1.0
  O  O60  1  0.17602200  0.19930500  0.43642300  1.0
  O  O61  1  0.25028500  0.44994900  0.84396600  1.0
  O  O62  1  0.26275500  0.70092300  0.73764000  1.0
  O  O63  1  0.26841200  0.96992800  0.83243600  1.0
  O  O64  1  0.31710900  0.52523800  0.50867400  1.0
  O  O65  1  0.32044900  0.04643200  0.03635300  1.0
  O  O66  1  0.34138000  0.93602300  0.60989300  1.0
  O  O67  1  0.34834000  0.68618600  0.96804100  1.0
  O  O68  1  0.37915300  0.34825800  0.01867400  1.0
  O  O69  1  0.39206500  0.04791500  0.29575000  1.0
  O  O70  1  0.39941900  0.15874400  0.53762700  1.0
  O  O71  1  0.42454200  0.69057200  0.30958100  1.0
  O  O72  1  0.43235500  0.34186000  0.35583700  1.0
  O  O73  1  0.43752500  0.84484900  0.11791100  1.0
  O  O74  1  0.49860800  0.89376200  0.81269900  1.0
  O  O75  1  0.52072300  0.20910100  0.90192400  1.0
  O  O76  1  0.52917900  0.64832000  0.51871700  1.0
  O  O77  1  0.54073100  0.50052200  0.11509700  1.0
  O  O78  1  0.54658500  0.43282700  0.80428400  1.0
  O  O79  1  0.60870900  0.99886000  0.98272100  1.0
  O  O80  1  0.62718200  0.08333300  0.53317900  1.0
  O  O81  1  0.63748300  0.25576800  0.11240500  1.0
  O  O82  1  0.64683900  0.68713000  0.83194200  1.0
  O  O83  1  0.65865900  0.55575000  0.34040900  1.0
  O  O84  1  0.71213300  0.88716900  0.67870700  1.0
  O  O85  1  0.71351700  0.29544200  0.38832400  1.0
  O  O86  1  0.74337700  0.78275400  0.25067400  1.0
  O  O87  1  0.74406300  0.20130400  0.79265600  1.0
  O  O88  1  0.77268600  0.83925800  0.01848800  1.0
  O  O89  1  0.80205400  0.56019300  0.68569100  1.0
  O  O90  1  0.81956400  0.58687700  0.02567600  1.0
  O  O91  1  0.87321800  0.05132600  0.21786600  1.0
  O  O92  1  0.87377400  0.07239900  0.97193900  1.0
  O  O93  1  0.88712100  0.37280300  0.15677800  1.0
  O  O94  1  0.90078300  0.98070300  0.48164200  1.0
  O  O95  1  0.90233000  0.31994500  0.52803400  1.0
  O  O96  1  0.91797000  0.10992200  0.65461600  1.0
  O  O97  1  0.92585700  0.36834400  0.79619400  1.0
  O  O98  1  0.94430500  0.56542100  0.48890200  1.0
  O  O99  1  0.98257400  0.60028000  0.22565300  1.0
