# generated using pymatgen
data_Ti2O3
_symmetry_space_group_name_H-M   P2_1/m
_cell_length_a   3.00369100
_cell_length_b   7.66366000
_cell_length_c   13.33235871
_cell_angle_alpha   98.96210636
_cell_angle_beta   90.00000000
_cell_angle_gamma   90.00000000
_symmetry_Int_Tables_number   11
_chemical_formula_structural   Ti2O3
_chemical_formula_sum   'Ti12 O18'
_cell_volume   303.15434305
_cell_formula_units_Z   6
loop_
 _symmetry_equiv_pos_site_id
 _symmetry_equiv_pos_as_xyz
  1  'x, y, z'
  2  '-x, -y, -z'
  3  'x+1/2, -y, -z'
  4  '-x+1/2, y, z'
loop_
 _atom_site_type_symbol
 _atom_site_label
 _atom_site_symmetry_multiplicity
 _atom_site_fract_x
 _atom_site_fract_y
 _atom_site_fract_z
 _atom_site_occupancy
  Ti  Ti0  2  0.25000000  0.13408200  0.43582700  1.0
  Ti  Ti1  2  0.25000000  0.17979600  0.72483400  1.0
  Ti  Ti2  2  0.25000000  0.19331500  0.01868400  1.0
  Ti  Ti3  2  0.25000000  0.48925800  0.39902800  1.0
  Ti  Ti4  2  0.25000000  0.54281800  0.11747700  1.0
  Ti  Ti5  2  0.25000000  0.84091400  0.78050800  1.0
  O  O6  2  0.25000000  0.00772700  0.26604200  1.0
  O  O7  2  0.25000000  0.05307600  0.57806300  1.0
  O  O8  2  0.25000000  0.26979900  0.87488100  1.0
  O  O9  2  0.25000000  0.31006400  0.17584300  1.0
  O  O10  2  0.25000000  0.36804500  0.52827100  1.0
  O  O11  2  0.25000000  0.61484900  0.96683700  1.0
  O  O12  2  0.25000000  0.63972900  0.28457400  1.0
  O  O13  2  0.25000000  0.71452300  0.63268400  1.0
  O  O14  2  0.25000000  0.94996600  0.92408600  1.0
