# generated using pymatgen
data_Ti2O3
_symmetry_space_group_name_H-M   C2/c
_cell_length_a   3.82734912
_cell_length_b   3.82734912
_cell_length_c   5.47203911
_cell_angle_alpha   109.89336061
_cell_angle_beta   109.89336061
_cell_angle_gamma   90.01314714
_symmetry_Int_Tables_number   15
_chemical_formula_structural   Ti2O3
_chemical_formula_sum   'Ti2 O3'
_cell_volume   70.26402106
_cell_formula_units_Z   1
loop_
 _symmetry_equiv_pos_site_id
 _symmetry_equiv_pos_as_xyz
  1  'x, y, z'
  2  '-x, -y, -z'
  3  '-y, -x, -z+1/2'
  4  'y, x, z+1/2'
loop_
 _atom_site_type_symbol
 _atom_site_label
 _atom_site_symmetry_multiplicity
 _atom_site_fract_x
 _atom_site_fract_y
 _atom_site_fract_z
 _atom_site_occupancy
  Ti  Ti0  2  0.13411000  0.86589000  0.25000000  1.0
  O  O1  4  0.08875500  0.33122100  0.16714900  0.75
