# generated using pymatgen
data_Ti2O3
_symmetry_space_group_name_H-M   P4_2/mnm
_cell_length_a   2.97316000
_cell_length_b   4.64906516
_cell_length_c   4.64906516
_cell_angle_alpha   90.00057515
_cell_angle_beta   90.00000000
_cell_angle_gamma   90.00000000
_symmetry_Int_Tables_number   136
_chemical_formula_structural   Ti2O3
_chemical_formula_sum   'Ti2 O3'
_cell_volume   64.26130601
_cell_formula_units_Z   1
loop_
 _symmetry_equiv_pos_site_id
 _symmetry_equiv_pos_as_xyz
  1  'x, y, z'
  2  '-x, -y, -z'
  3  'x+1/2, -z, y'
  4  '-x+1/2, z, -y'
  5  'x, -y, -z'
  6  '-x, y, z'
  7  'x+1/2, z, -y'
  8  '-x+1/2, -z, y'
  9  '-x+1/2, y+1/2, -z+1/2'
  10  'x+1/2, -y+1/2, z+1/2'
  11  '-x, -z+1/2, -y+1/2'
  12  'x, z+1/2, y+1/2'
  13  '-x+1/2, -y+1/2, z+1/2'
  14  'x+1/2, y+1/2, -z+1/2'
  15  '-x, z+1/2, y+1/2'
  16  'x, -z+1/2, -y+1/2'
loop_
 _atom_site_type_symbol
 _atom_site_label
 _atom_site_symmetry_multiplicity
 _atom_site_fract_x
 _atom_site_fract_y
 _atom_site_fract_z
 _atom_site_occupancy
  Ti  Ti0  2  0.00000000  0.50000000  0.00000000  1.0
  O  O1  4  0.00000000  0.19510100  0.69510100  0.75
