# generated using pymatgen
data_Ti2O3
_symmetry_space_group_name_H-M   Pnma
_cell_length_a   2.85498600
_cell_length_b   7.88040500
_cell_length_c   8.20830500
_cell_angle_alpha   90.00000000
_cell_angle_beta   90.00000000
_cell_angle_gamma   90.00000000
_symmetry_Int_Tables_number   62
_chemical_formula_structural   Ti2O3
_chemical_formula_sum   'Ti8 O12'
_cell_volume   184.67410638
_cell_formula_units_Z   4
loop_
 _symmetry_equiv_pos_site_id
 _symmetry_equiv_pos_as_xyz
  1  'x, y, z'
  2  '-x, -y, -z'
  3  '-x, -y+1/2, z+1/2'
  4  'x, y+1/2, -z+1/2'
  5  '-x+1/2, y+1/2, -z+1/2'
  6  'x+1/2, -y+1/2, z+1/2'
  7  'x+1/2, -y, -z'
  8  '-x+1/2, y, z'
loop_
 _atom_site_type_symbol
 _atom_site_label
 _atom_site_symmetry_multiplicity
 _atom_site_fract_x
 _atom_site_fract_y
 _atom_site_fract_z
 _atom_site_occupancy
  Ti  Ti0  4  0.25000000  0.02994100  0.68400500  1.0
  Ti  Ti1  4  0.25000000  0.19593600  0.01829700  1.0
  O  O2  4  0.25000000  0.12083500  0.44666700  1.0
  O  O3  4  0.25000000  0.29202800  0.68926200  1.0
  O  O4  4  0.25000000  0.44324000  0.37490300  1.0
