# generated using pymatgen
data_Ti3O4.5
_symmetry_space_group_name_H-M   P3_121
_cell_length_a   5.61627800
_cell_length_b   5.61627763
_cell_length_c   6.12683000
_cell_angle_alpha   90.00000000
_cell_angle_beta   90.00000000
_cell_angle_gamma   120.00000216
_symmetry_Int_Tables_number   152
_chemical_formula_structural   Ti3O4.5
_chemical_formula_sum   'Ti3 O4.5'
_cell_volume   167.36460521
_cell_formula_units_Z   1
loop_
 _symmetry_equiv_pos_site_id
 _symmetry_equiv_pos_as_xyz
  1  'x, y, z'
  2  '-y, x-y, z+1/3'
  3  '-x+y, -x, z+2/3'
  4  'y, x, -z+1/3'
  5  'x-y, -y, -z'
  6  '-x, -x+y, -z+2/3'
loop_
 _atom_site_type_symbol
 _atom_site_label
 _atom_site_symmetry_multiplicity
 _atom_site_fract_x
 _atom_site_fract_y
 _atom_site_fract_z
 _atom_site_occupancy
  Ti  Ti0  3  0.00000000  0.46672700  0.33333333  1.0
  O  O1  6  0.14878700  0.72901300  0.12074200  0.75
