# generated using pymatgen
data_Ti2O3
_symmetry_space_group_name_H-M   C2/c
_cell_length_a   4.41122100
_cell_length_b   4.41122105
_cell_length_c   7.37909420
_cell_angle_alpha   76.39321889
_cell_angle_beta   76.39322091
_cell_angle_gamma   85.59664564
_symmetry_Int_Tables_number   15
_chemical_formula_structural   Ti2O3
_chemical_formula_sum   'Ti4 O6'
_cell_volume   135.60687330
_cell_formula_units_Z   2
loop_
 _symmetry_equiv_pos_site_id
 _symmetry_equiv_pos_as_xyz
  1  'x, y, z'
  2  '-x, -y, -z'
  3  '-y, -x, -z+1/2'
  4  'y, x, z+1/2'
loop_
 _atom_site_type_symbol
 _atom_site_label
 _atom_site_symmetry_multiplicity
 _atom_site_fract_x
 _atom_site_fract_y
 _atom_site_fract_z
 _atom_site_occupancy
  Ti  Ti0  4  0.27528400  0.31157200  0.19090700  1.0
  O  O1  4  0.32123600  0.40514300  0.41875400  1.0
  O  O2  2  0.07385500  0.92614500  0.75000000  1.0
