# generated using pymatgen
data_Ti2O3
_symmetry_space_group_name_H-M   P-31c
_cell_length_a   5.16780200
_cell_length_b   5.16780216
_cell_length_c   9.60760300
_cell_angle_alpha   90.00000000
_cell_angle_beta   90.00000000
_cell_angle_gamma   119.99999897
_symmetry_Int_Tables_number   163
_chemical_formula_structural   Ti2O3
_chemical_formula_sum   'Ti8 O12'
_cell_volume   222.20684347
_cell_formula_units_Z   4
loop_
 _symmetry_equiv_pos_site_id
 _symmetry_equiv_pos_as_xyz
  1  'x, y, z'
  2  '-x, -y, -z'
  3  '-y, x-y, z'
  4  'y, -x+y, -z'
  5  '-x+y, -x, z'
  6  'x-y, x, -z'
  7  '-y, -x, -z+1/2'
  8  'y, x, z+1/2'
  9  '-x+y, y, -z+1/2'
  10  'x-y, -y, z+1/2'
  11  'x, x-y, -z+1/2'
  12  '-x, -x+y, z+1/2'
loop_
 _atom_site_type_symbol
 _atom_site_label
 _atom_site_symmetry_multiplicity
 _atom_site_fract_x
 _atom_site_fract_y
 _atom_site_fract_z
 _atom_site_occupancy
  Ti  Ti0  4  0.33333333  0.66666667  0.52345200  1.0
  Ti  Ti1  2  0.00000000  0.00000000  0.00000000  1.0
  Ti  Ti2  2  0.33333333  0.66666667  0.25000000  1.0
  O  O3  12  0.02585700  0.35030200  0.11641700  1.0
