# generated using pymatgen
data_Ti2O3
_symmetry_space_group_name_H-M   R-3c
_cell_length_a   5.11279247
_cell_length_b   5.11279247
_cell_length_c   5.51733371
_cell_angle_alpha   62.39721932
_cell_angle_beta   62.39721932
_cell_angle_gamma   59.99999395
_symmetry_Int_Tables_number   167
_chemical_formula_structural   Ti2O3
_chemical_formula_sum   'Ti4 O6'
_cell_volume   105.52395275
_cell_formula_units_Z   2
loop_
 _symmetry_equiv_pos_site_id
 _symmetry_equiv_pos_as_xyz
  1  'x, y, z'
  2  '-x, -y, -z'
  3  '-x-y-z, x, z'
  4  'x+y+z, -x, -z'
  5  'y, -x-y-z, z'
  6  '-y, x+y+z, -z'
  7  '-x+1/2, x+y+z+1/2, -z+1/2'
  8  'x+1/2, -x-y-z+1/2, z+1/2'
  9  'x+y+z+1/2, -y+1/2, -z+1/2'
  10  '-x-y-z+1/2, y+1/2, z+1/2'
  11  '-y+1/2, -x+1/2, -z+1/2'
  12  'y+1/2, x+1/2, z+1/2'
loop_
 _atom_site_type_symbol
 _atom_site_label
 _atom_site_symmetry_multiplicity
 _atom_site_fract_x
 _atom_site_fract_y
 _atom_site_fract_z
 _atom_site_occupancy
  Ti  Ti0  4  0.15446000  0.15446000  0.53662000  1.0
  O  O1  6  0.06227800  0.75000000  0.75000000  1.0
