# generated using pymatgen
data_Tl0.09W3O9
_symmetry_space_group_name_H-M   P6mm
_cell_length_a   3.87397600
_cell_length_b   7.52830800
_cell_length_c   7.52830716
_cell_angle_alpha   120.00000371
_cell_angle_beta   90.00000000
_cell_angle_gamma   90.00000000
_symmetry_Int_Tables_number   183
_chemical_formula_structural   Tl0.09W3O9
_chemical_formula_sum   'Tl0.09 W3 O9'
_cell_volume   190.14383563
_cell_formula_units_Z   1
loop_
 _symmetry_equiv_pos_site_id
 _symmetry_equiv_pos_as_xyz
  1  'x, y, z'
  2  'x, y-z, y'
  3  'x, -z, y-z'
  4  'x, -y, -z'
  5  'x, -y+z, -y'
  6  'x, z, -y+z'
  7  'x, y-z, -z'
  8  'x, -z, -y'
  9  'x, -y, -y+z'
  10  'x, -y+z, z'
  11  'x, z, y'
  12  'x, y, y-z'
loop_
 _atom_site_type_symbol
 _atom_site_label
 _atom_site_symmetry_multiplicity
 _atom_site_fract_x
 _atom_site_fract_y
 _atom_site_fract_z
 _atom_site_occupancy
  Tl  Tl0  1  0.06646300  0.00000000  0.00000000
  0.08999999999999997
  W  W1  3  0.50129900  0.00000000  0.50000000  1.0
  O  O2  6  0.50013900  0.21016400  0.42032900  1.0
  O  O3  3  0.00086900  0.00000000  0.50000000  1.0
