# generated using pymatgen
data_U
_symmetry_space_group_name_H-M   P4_2/mnm
_cell_length_a   5.65326900
_cell_length_b   10.43395500
_cell_length_c   10.43395500
_cell_angle_alpha   90.00000000
_cell_angle_beta   90.00000000
_cell_angle_gamma   90.00000000
_symmetry_Int_Tables_number   136
_chemical_formula_structural   U
_chemical_formula_sum   U30
_cell_volume   615.45679331
_cell_formula_units_Z   30
loop_
 _symmetry_equiv_pos_site_id
 _symmetry_equiv_pos_as_xyz
  1  'x, y, z'
  2  '-x, -y, -z'
  3  'x+1/2, -z+1/2, y+1/2'
  4  '-x+1/2, z+1/2, -y+1/2'
  5  'x, -y, -z'
  6  '-x, y, z'
  7  'x+1/2, z+1/2, -y+1/2'
  8  '-x+1/2, -z+1/2, y+1/2'
  9  '-x+1/2, y+1/2, -z+1/2'
  10  'x+1/2, -y+1/2, z+1/2'
  11  '-x, -z, -y'
  12  'x, z, y'
  13  '-x+1/2, -y+1/2, z+1/2'
  14  'x+1/2, y+1/2, -z+1/2'
  15  '-x, z, y'
  16  'x, -z, -y'
loop_
 _atom_site_type_symbol
 _atom_site_label
 _atom_site_symmetry_multiplicity
 _atom_site_fract_x
 _atom_site_fract_y
 _atom_site_fract_z
 _atom_site_occupancy
  U  U0  8  0.00000000  0.05603800  0.73421200  1.0
  U  U1  8  0.00000000  0.13803000  0.45290000  1.0
  U  U2  8  0.22569500  0.32027700  0.67972300  1.0
  U  U3  4  0.00000000  0.38904600  0.38904600  1.0
  U  U4  2  0.00000000  0.00000000  0.00000000  1.0
