# generated using pymatgen
data_U
_symmetry_space_group_name_H-M   Cmcm
_cell_length_a   2.80862800
_cell_length_b   3.22102110
_cell_length_c   4.90964600
_cell_angle_alpha   90.00000000
_cell_angle_beta   90.00000000
_cell_angle_gamma   115.84793054
_symmetry_Int_Tables_number   63
_chemical_formula_structural   U
_chemical_formula_sum   U2
_cell_volume   39.97223742
_cell_formula_units_Z   2
loop_
 _symmetry_equiv_pos_site_id
 _symmetry_equiv_pos_as_xyz
  1  'x, y, z'
  2  '-x, -y, -z'
  3  '-x, -y, z+1/2'
  4  'x, y, -z+1/2'
  5  'x-y, -y, -z'
  6  '-x+y, y, z'
  7  '-x+y, y, -z+1/2'
  8  'x-y, -y, z+1/2'
loop_
 _atom_site_type_symbol
 _atom_site_label
 _atom_site_symmetry_multiplicity
 _atom_site_fract_x
 _atom_site_fract_y
 _atom_site_fract_z
 _atom_site_occupancy
  U  U0  2  0.09901700  0.19803400  0.75000000  1.0
