# generated using pymatgen
data_U
_symmetry_space_group_name_H-M   P4_2nm
_cell_length_a   5.70574800
_cell_length_b   10.41849600
_cell_length_c   10.41849600
_cell_angle_alpha   90.00000000
_cell_angle_beta   90.00000000
_cell_angle_gamma   90.00000000
_symmetry_Int_Tables_number   102
_chemical_formula_structural   U
_chemical_formula_sum   U30
_cell_volume   619.33075274
_cell_formula_units_Z   30
loop_
 _symmetry_equiv_pos_site_id
 _symmetry_equiv_pos_as_xyz
  1  'x, y, z'
  2  'x+1/2, -z+1/2, y+1/2'
  3  'x, -y, -z'
  4  'x+1/2, z+1/2, -y+1/2'
  5  'x+1/2, -y+1/2, z+1/2'
  6  'x, z, y'
  7  'x+1/2, y+1/2, -z+1/2'
  8  'x, -z, -y'
loop_
 _atom_site_type_symbol
 _atom_site_label
 _atom_site_symmetry_multiplicity
 _atom_site_fract_x
 _atom_site_fract_y
 _atom_site_fract_z
 _atom_site_occupancy
  U  U0  8  0.19061700  0.04969600  0.35872200  1.0
  U  U1  8  0.24976600  0.22884600  0.55569700  1.0
  U  U2  4  0.26742200  0.10970400  0.10970400  1.0
  U  U3  4  0.44757700  0.17706500  0.82293500  1.0
  U  U4  4  0.49866800  0.32314400  0.32314400  1.0
  U  U5  2  0.23113500  0.50000000  0.50000000  1.0
