# generated using pymatgen
data_U
_symmetry_space_group_name_H-M   Cmmm
_cell_length_a   5.04314300
_cell_length_b   5.82197200
_cell_length_c   6.39497262
_cell_angle_alpha   117.07774762
_cell_angle_beta   90.00000000
_cell_angle_gamma   90.00000000
_symmetry_Int_Tables_number   65
_chemical_formula_structural   U
_chemical_formula_sum   U8
_cell_volume   167.18226047
_cell_formula_units_Z   8
loop_
 _symmetry_equiv_pos_site_id
 _symmetry_equiv_pos_as_xyz
  1  'x, y, z'
  2  '-x, -y, -z'
  3  'x, -y, -z'
  4  '-x, y, z'
  5  '-x, y-z, -z'
  6  'x, -y+z, z'
  7  '-x, -y+z, z'
  8  'x, y-z, -z'
loop_
 _atom_site_type_symbol
 _atom_site_label
 _atom_site_symmetry_multiplicity
 _atom_site_fract_x
 _atom_site_fract_y
 _atom_site_fract_z
 _atom_site_occupancy
  U  U0  4  0.50000000  0.15587150  0.75250400  1.0
  U  U1  2  0.00000000  0.00000000  0.50000000  1.0
  U  U2  2  0.00000000  0.21758850  0.00000000  1.0
