# generated using pymatgen
data_Zr3V
_symmetry_space_group_name_H-M   P6_3/mmc
_cell_length_a   4.91962700
_cell_length_b   6.33611600
_cell_length_c   6.33611650
_cell_angle_alpha   60.00000264
_cell_angle_beta   90.00000000
_cell_angle_gamma   90.00000000
_symmetry_Int_Tables_number   194
_chemical_formula_structural   Zr3V
_chemical_formula_sum   'Zr6 V2'
_cell_volume   171.04449182
_cell_formula_units_Z   2
loop_
 _symmetry_equiv_pos_site_id
 _symmetry_equiv_pos_as_xyz
  1  'x, y, z'
  2  '-x, -y, -z'
  3  'x+1/2, y+z, -y'
  4  '-x+1/2, -y-z, y'
  5  'x, z, -y-z'
  6  '-x, -z, y+z'
  7  'x+1/2, -y, -z'
  8  '-x+1/2, y, z'
  9  'x, -y-z, y'
  10  '-x, y+z, -y'
  11  'x+1/2, -z, y+z'
  12  '-x+1/2, z, -y-z'
  13  '-x+1/2, z, y'
  14  'x+1/2, -z, -y'
  15  '-x, -y, y+z'
  16  'x, y, -y-z'
  17  '-x+1/2, -y-z, z'
  18  'x+1/2, y+z, -z'
  19  '-x, -z, -y'
  20  'x, z, y'
  21  '-x+1/2, y, -y-z'
  22  'x+1/2, -y, y+z'
  23  '-x, y+z, -z'
  24  'x, -y-z, z'
loop_
 _atom_site_type_symbol
 _atom_site_label
 _atom_site_symmetry_multiplicity
 _atom_site_fract_x
 _atom_site_fract_y
 _atom_site_fract_z
 _atom_site_occupancy
  Zr  Zr0  6  0.25000000  0.34575400  0.82712300  1.0
  V  V1  2  0.25000000  0.33333333  0.33333333  1.0
