# generated using pymatgen
data_V1O1.5
_symmetry_space_group_name_H-M   C2/m
_cell_length_a   2.94320243
_cell_length_b   2.94320243
_cell_length_c   5.04802259
_cell_angle_alpha   74.77768268
_cell_angle_beta   74.77768268
_cell_angle_gamma   62.80730685
_symmetry_Int_Tables_number   12
_chemical_formula_structural   V1O1.5
_chemical_formula_sum   'V1 O1.5'
_cell_volume   37.00898198
_cell_formula_units_Z   1
loop_
 _symmetry_equiv_pos_site_id
 _symmetry_equiv_pos_as_xyz
  1  'x, y, z'
  2  '-x, -y, -z'
  3  '-y, -x, -z'
  4  'y, x, z'
loop_
 _atom_site_type_symbol
 _atom_site_label
 _atom_site_symmetry_multiplicity
 _atom_site_fract_x
 _atom_site_fract_y
 _atom_site_fract_z
 _atom_site_occupancy
  V  V0  1  0.00000000  0.00000000  0.00000000  1.0
  O  O1  2  0.26167100  0.26167100  0.20108000  0.75
