# generated using pymatgen
data_V2O3
_symmetry_space_group_name_H-M   P2_1/m
_cell_length_a   3.11041300
_cell_length_b   7.64532700
_cell_length_c   13.39487038
_cell_angle_alpha   98.50055834
_cell_angle_beta   90.00000000
_cell_angle_gamma   90.00000000
_symmetry_Int_Tables_number   11
_chemical_formula_structural   V2O3
_chemical_formula_sum   'V12 O18'
_cell_volume   315.03243079
_cell_formula_units_Z   6
loop_
 _symmetry_equiv_pos_site_id
 _symmetry_equiv_pos_as_xyz
  1  'x, y, z'
  2  '-x, -y, -z'
  3  'x+1/2, -y, -z'
  4  '-x+1/2, y, z'
loop_
 _atom_site_type_symbol
 _atom_site_label
 _atom_site_symmetry_multiplicity
 _atom_site_fract_x
 _atom_site_fract_y
 _atom_site_fract_z
 _atom_site_occupancy
  V  V0  2  0.25000000  0.18012100  0.21695400  1.0
  V  V1  2  0.25000000  0.45168300  0.88781800  1.0
  V  V2  2  0.25000000  0.50074100  0.59890000  1.0
  V  V3  2  0.25000000  0.81368400  0.98389900  1.0
  V  V4  2  0.25000000  0.82015000  0.28344500  1.0
  V  V5  2  0.25000000  0.87290000  0.57055800  1.0
  O  O6  2  0.25000000  0.05401900  0.07467500  1.0
  O  O7  2  0.25000000  0.30769300  0.35953000  1.0
  O  O8  2  0.25000000  0.34570800  0.70662200  1.0
  O  O9  2  0.25000000  0.37864400  0.02518900  1.0
  O  O10  2  0.25000000  0.63343500  0.47515800  1.0
  O  O11  2  0.25000000  0.68485700  0.82891300  1.0
  O  O12  2  0.25000000  0.72050600  0.13442400  1.0
  O  O13  2  0.25000000  0.96019600  0.42574400  1.0
  O  O14  2  0.25000000  0.98196000  0.72934900  1.0
