# generated using pymatgen
data_V2O3
_symmetry_space_group_name_H-M   R-3c
_cell_length_a   5.12568301
_cell_length_b   5.12568276
_cell_length_c   5.56360048
_cell_angle_alpha   62.57130557
_cell_angle_beta   62.57130034
_cell_angle_gamma   59.99999788
_symmetry_Int_Tables_number   167
_chemical_formula_structural   V2O3
_chemical_formula_sum   'V4 O6'
_cell_volume   107.19450335
_cell_formula_units_Z   2
loop_
 _symmetry_equiv_pos_site_id
 _symmetry_equiv_pos_as_xyz
  1  'x, y, z'
  2  '-x, -y, -z'
  3  '-x-y-z, x, z'
  4  'x+y+z, -x, -z'
  5  'y, -x-y-z, z'
  6  '-y, x+y+z, -z'
  7  '-x+1/2, x+y+z+1/2, -z+1/2'
  8  'x+1/2, -x-y-z+1/2, z+1/2'
  9  'x+y+z+1/2, -y+1/2, -z+1/2'
  10  '-x-y-z+1/2, y+1/2, z+1/2'
  11  '-y+1/2, -x+1/2, -z+1/2'
  12  'y+1/2, x+1/2, z+1/2'
loop_
 _atom_site_type_symbol
 _atom_site_label
 _atom_site_symmetry_multiplicity
 _atom_site_fract_x
 _atom_site_fract_y
 _atom_site_fract_z
 _atom_site_occupancy
  V  V0  4  0.14897700  0.14897800  0.55306800  1.0
  O  O1  6  0.05347000  0.44653000  0.75000000  1.0
