# generated using pymatgen
data_V2O3
_symmetry_space_group_name_H-M   Pbca
_cell_length_a   5.13475600
_cell_length_b   5.47013400
_cell_length_c   15.06834100
_cell_angle_alpha   90.00000000
_cell_angle_beta   90.00000000
_cell_angle_gamma   90.00000000
_symmetry_Int_Tables_number   61
_chemical_formula_structural   V2O3
_chemical_formula_sum   'V16 O24'
_cell_volume   423.23659923
_cell_formula_units_Z   8
loop_
 _symmetry_equiv_pos_site_id
 _symmetry_equiv_pos_as_xyz
  1  'x, y, z'
  2  '-x, -y, -z'
  3  '-x+1/2, -y, z+1/2'
  4  'x+1/2, y, -z+1/2'
  5  'x+1/2, -y+1/2, -z'
  6  '-x+1/2, y+1/2, z'
  7  '-x, y+1/2, -z+1/2'
  8  'x, -y+1/2, z+1/2'
loop_
 _atom_site_type_symbol
 _atom_site_label
 _atom_site_symmetry_multiplicity
 _atom_site_fract_x
 _atom_site_fract_y
 _atom_site_fract_z
 _atom_site_occupancy
  V  V0  8  0.00064800  0.18386000  0.07343600  1.0
  V  V1  8  0.00278500  0.24921400  0.32080500  1.0
  O  O2  8  0.14201300  0.11595100  0.20253000  1.0
  O  O3  8  0.15012700  0.66371000  0.55087700  1.0
  O  O4  8  0.19921800  0.53309300  0.87536400  1.0
