# generated using pymatgen
data_V2O3
_symmetry_space_group_name_H-M   C2/c
_cell_length_a   5.55802657
_cell_length_b   5.76081610
_cell_length_c   6.05985610
_cell_angle_alpha   63.40363599
_cell_angle_beta   62.70358176
_cell_angle_gamma   89.99999320
_symmetry_Int_Tables_number   15
_chemical_formula_structural   V2O3
_chemical_formula_sum   'V4 O6'
_cell_volume   148.94237855
_cell_formula_units_Z   2
loop_
 _symmetry_equiv_pos_site_id
 _symmetry_equiv_pos_as_xyz
  1  'x, y, z'
  2  '-x, -y, -z'
  3  'x+z, -y+1/2, -z'
  4  '-x-z, y+1/2, z'
loop_
 _atom_site_type_symbol
 _atom_site_label
 _atom_site_symmetry_multiplicity
 _atom_site_fract_x
 _atom_site_fract_y
 _atom_site_fract_z
 _atom_site_occupancy
  V  V0  4  0.19432400  0.44776100  0.61077700  1.0
  O  O1  4  0.04836700  0.26581000  0.46524500  1.0
  O  O2  2  0.00215700  0.75000000  0.00000000  1.0
