# generated using pymatgen
data_V2O3
_symmetry_space_group_name_H-M   P2_1/c
_cell_length_a   3.77723367
_cell_length_b   5.48081738
_cell_length_c   12.03636200
_cell_angle_alpha   89.99994341
_cell_angle_beta   90.00000358
_cell_angle_gamma   108.24225728
_symmetry_Int_Tables_number   14
_chemical_formula_structural   V2O3
_chemical_formula_sum   'V8 O12'
_cell_volume   236.65724888
_cell_formula_units_Z   4
loop_
 _symmetry_equiv_pos_site_id
 _symmetry_equiv_pos_as_xyz
  1  'x, y, z'
  2  '-x, -y, -z'
  3  '-x, -y+1/2, z+1/2'
  4  'x, y+1/2, -z+1/2'
loop_
 _atom_site_type_symbol
 _atom_site_label
 _atom_site_symmetry_multiplicity
 _atom_site_fract_x
 _atom_site_fract_y
 _atom_site_fract_z
 _atom_site_occupancy
  V  V0  4  0.15994000  0.28855900  0.95024700  1.0
  V  V1  4  0.38782500  0.32715600  0.65897600  1.0
  O  O2  4  0.06969900  0.08602400  0.10831700  1.0
  O  O3  4  0.31931700  0.45857500  0.80623600  1.0
  O  O4  4  0.32572900  0.18146000  0.49503000  1.0
