# generated using pymatgen
data_V2O3
_symmetry_space_group_name_H-M   Cmcm
_cell_length_a   3.05122400
_cell_length_b   5.25582191
_cell_length_c   15.82206000
_cell_angle_alpha   90.00000000
_cell_angle_beta   90.00000000
_cell_angle_gamma   106.87417331
_symmetry_Int_Tables_number   63
_chemical_formula_structural   V2O3
_chemical_formula_sum   'V8 O12'
_cell_volume   242.80885526
_cell_formula_units_Z   4
loop_
 _symmetry_equiv_pos_site_id
 _symmetry_equiv_pos_as_xyz
  1  'x, y, z'
  2  '-x, -y, -z'
  3  '-x, -y, z+1/2'
  4  'x, y, -z+1/2'
  5  'x-y, -y, -z'
  6  '-x+y, y, z'
  7  '-x+y, y, -z+1/2'
  8  'x-y, -y, z+1/2'
loop_
 _atom_site_type_symbol
 _atom_site_label
 _atom_site_symmetry_multiplicity
 _atom_site_fract_x
 _atom_site_fract_y
 _atom_site_fract_z
 _atom_site_occupancy
  V  V0  4  0.10343400  0.20686800  0.64088900  1.0
  V  V1  4  0.36658900  0.73317800  0.54772700  1.0
  O  O2  4  0.27199400  0.54398800  0.07424500  1.0
  O  O3  4  0.47900000  0.95800000  0.64317700  1.0
  O  O4  2  0.00000000  0.00000000  0.00000000  1.0
  O  O5  2  0.15372500  0.30745000  0.75000000  1.0
