# generated using pymatgen
data_V2O3
_symmetry_space_group_name_H-M   Cmcm
_cell_length_a   2.93877632
_cell_length_b   2.94104284
_cell_length_c   10.76466600
_cell_angle_alpha   90.00000000
_cell_angle_beta   90.00000000
_cell_angle_gamma   117.08347451
_symmetry_Int_Tables_number   63
_chemical_formula_structural   V2O3
_chemical_formula_sum   'V2 O3'
_cell_volume   82.83738009
_cell_formula_units_Z   1
loop_
 _symmetry_equiv_pos_site_id
 _symmetry_equiv_pos_as_xyz
  1  'x, y, z'
  2  '-x, -y, -z'
  3  '-x, -y, z+1/2'
  4  'x, y, -z+1/2'
  5  'y+1/2, x+1/2, -z'
  6  '-y+1/2, -x+1/2, z'
  7  '-y+1/2, -x+1/2, -z+1/2'
  8  'y+1/2, x+1/2, z+1/2'
loop_
 _atom_site_type_symbol
 _atom_site_label
 _atom_site_symmetry_multiplicity
 _atom_site_fract_x
 _atom_site_fract_y
 _atom_site_fract_z
 _atom_site_occupancy
  V  V0  2  0.50000000  0.00000000  0.00000000  1.0
  O  O1  4  0.17513425  0.32483150  0.58956825  0.75
