# generated using pymatgen
data_V2O3
_symmetry_space_group_name_H-M   C2/c
_cell_length_a   3.95008334
_cell_length_b   3.95008255
_cell_length_c   7.44287252
_cell_angle_alpha   79.02903487
_cell_angle_beta   79.02902852
_cell_angle_gamma   85.02052616
_symmetry_Int_Tables_number   15
_chemical_formula_structural   V2O3
_chemical_formula_sum   'V4 O6'
_cell_volume   111.77191455
_cell_formula_units_Z   2
loop_
 _symmetry_equiv_pos_site_id
 _symmetry_equiv_pos_as_xyz
  1  'x, y, z'
  2  '-x, -y, -z'
  3  '-y, -x, -z+1/2'
  4  'y, x, z+1/2'
loop_
 _atom_site_type_symbol
 _atom_site_label
 _atom_site_symmetry_multiplicity
 _atom_site_fract_x
 _atom_site_fract_y
 _atom_site_fract_z
 _atom_site_occupancy
  V  V0  4  0.17911100  0.43943200  0.66601400  1.0
  O  O1  4  0.30195800  0.40933500  0.39943900  1.0
  O  O2  2  0.09554900  0.90445100  0.75000000  1.0
