# generated using pymatgen
data_V2O3
_symmetry_space_group_name_H-M   C2/m
_cell_length_a   3.08176300
_cell_length_b   6.98200028
_cell_length_c   7.62146937
_cell_angle_alpha   98.62272851
_cell_angle_beta   90.00395068
_cell_angle_gamma   102.74764660
_symmetry_Int_Tables_number   12
_chemical_formula_structural   V2O3
_chemical_formula_sum   'V6 O9'
_cell_volume   158.04666496
_cell_formula_units_Z   3
loop_
 _symmetry_equiv_pos_site_id
 _symmetry_equiv_pos_as_xyz
  1  'x, y, z'
  2  '-x, -y, -z'
  3  'x-y, -y, -z'
  4  '-x+y, y, z'
loop_
 _atom_site_type_symbol
 _atom_site_label
 _atom_site_symmetry_multiplicity
 _atom_site_fract_x
 _atom_site_fract_y
 _atom_site_fract_z
 _atom_site_occupancy
  V  V0  2  0.03326200  0.06660600  0.81551000  1.0
  V  V1  2  0.31456800  0.62921400  0.86774700  1.0
  V  V2  2  0.34942600  0.69885000  0.50477600  1.0
  O  O3  2  0.11319000  0.22643600  0.29149800  1.0
  O  O4  2  0.17496400  0.34990500  0.96369900  1.0
  O  O5  2  0.22552800  0.45105700  0.62939200  1.0
  O  O6  2  0.44010400  0.88030700  0.33141500  1.0
  O  O7  1  0.50001200  0.99999800  0.99999200  1.0
