# generated using pymatgen
data_WO2
_symmetry_space_group_name_H-M   P1
_cell_length_a   11.63924951
_cell_length_b   11.74423133
_cell_length_c   12.25176058
_cell_angle_alpha   86.47720676
_cell_angle_beta   82.88387648
_cell_angle_gamma   89.36276729
_symmetry_Int_Tables_number   1
_chemical_formula_structural   WO2
_chemical_formula_sum   'W34 O68'
_cell_volume   1658.69171131
_cell_formula_units_Z   34
loop_
 _symmetry_equiv_pos_site_id
 _symmetry_equiv_pos_as_xyz
  1  'x, y, z'
loop_
 _atom_site_type_symbol
 _atom_site_label
 _atom_site_symmetry_multiplicity
 _atom_site_fract_x
 _atom_site_fract_y
 _atom_site_fract_z
 _atom_site_occupancy
  W  W0  1  0.02818756  0.72595179  0.50003681  1.0
  W  W1  1  0.08137187  0.89196252  0.30212573  1.0
  W  W2  1  0.10993900  0.45291045  0.38719702  1.0
  W  W3  1  0.12684607  0.38841807  0.70692787  1.0
  W  W4  1  0.14373372  0.96523624  0.79133622  1.0
  W  W5  1  0.16437832  0.62217996  0.75317706  1.0
  W  W6  1  0.16886287  0.14663708  0.38713091  1.0
  W  W7  1  0.22400871  0.92292628  0.00618738  1.0
  W  W8  1  0.25038780  0.67259973  0.23320509  1.0
  W  W9  1  0.31055425  0.71449842  0.46883887  1.0
  W  W10  1  0.31174993  0.43077743  0.84586302  1.0
  W  W11  1  0.34198928  0.44339741  0.51584611  1.0
  W  W12  1  0.34371426  0.10982608  0.85197482  1.0
  W  W13  1  0.40272438  0.92003000  0.65696310  1.0
  W  W14  1  0.48616078  0.06672621  0.39771738  1.0
  W  W15  1  0.48704112  0.62869598  0.70605998  1.0
  W  W16  1  0.50100275  0.11866548  0.04823724  1.0
  W  W17  1  0.52250112  0.84161209  0.92833473  1.0
  W  W18  1  0.52278799  0.68323766  0.18653344  1.0
  W  W19  1  0.59256428  0.26823449  0.22861413  1.0
  W  W20  1  0.65839899  0.42398970  0.75003897  1.0
  W  W21  1  0.66047170  0.87974294  0.50637672  1.0
  W  W22  1  0.68733907  0.63012748  0.92421958  1.0
  W  W23  1  0.74539130  0.36642666  0.00611735  1.0
  W  W24  1  0.77182838  0.98080750  0.94091921  1.0
  W  W25  1  0.79448437  0.55548241  0.52774030  1.0
  W  W26  1  0.80336436  0.75320017  0.29621061  1.0
  W  W27  1  0.84349341  0.44161574  0.27605145  1.0
  W  W28  1  0.88727724  0.78160683  0.73098362  1.0
  W  W29  1  0.88979536  0.05316761  0.30761902  1.0
  W  W30  1  0.90850399  0.50279535  0.80072049  1.0
  W  W31  1  0.93194974  0.01616378  0.58293737  1.0
  W  W32  1  0.93359097  0.22088290  0.79856107  1.0
  W  W33  1  0.95661882  0.93040188  0.06923381  1.0
  O  O34  1  0.00021398  0.28992557  0.66129165  1.0
  O  O35  1  0.01049577  0.35916353  0.85360676  1.0
  O  O36  1  0.01404077  0.91889694  0.69862987  1.0
  O  O37  1  0.01508628  0.14767611  0.31734836  1.0
  O  O38  1  0.02079663  0.89959339  0.47538648  1.0
  O  O39  1  0.06628071  0.10570364  0.80840370  1.0
  O  O40  1  0.07378621  0.10124097  0.52742905  1.0
  O  O41  1  0.07886371  0.86864020  0.93733134  1.0
  O  O42  1  0.10062168  0.02113750  0.07292717  1.0
  O  O43  1  0.13434230  0.56440661  0.24935329  1.0
  O  O44  1  0.15360307  0.69299460  0.59524222  1.0
  O  O45  1  0.17007448  0.39940366  0.53238191  1.0
  O  O46  1  0.17529065  0.75343232  0.37930138  1.0
  O  O47  1  0.17852478  0.81573186  0.16715237  1.0
  O  O48  1  0.19826370  0.29705696  0.34305783  1.0
  O  O49  1  0.20083570  0.00892788  0.31299910  1.0
  O  O50  1  0.24972371  0.84278898  0.74707035  1.0
  O  O51  1  0.27282745  0.43725970  0.98808498  1.0
  O  O52  1  0.27559806  0.55067312  0.39973045  1.0
  O  O53  1  0.28044430  0.25446825  0.84362449  1.0
  O  O54  1  0.29108370  0.05636891  0.70910352  1.0
  O  O55  1  0.30237067  0.39846125  0.67420298  1.0
  O  O56  1  0.31854311  0.60770555  0.80013272  1.0
  O  O57  1  0.33265318  0.11792017  0.43400126  1.0
  O  O58  1  0.34062352  0.86340170  0.53372903  1.0
  O  O59  1  0.34195764  0.82181057  0.96809861  1.0
  O  O60  1  0.34280700  0.04613828  0.01378796  1.0
  O  O61  1  0.37944893  0.60866005  0.14803071  1.0
  O  O62  1  0.38229286  0.73972467  0.30673626  1.0
  O  O63  1  0.39958105  0.59810065  0.55743870  1.0
  O  O64  1  0.44882734  0.34716329  0.46805166  1.0
  O  O65  1  0.45646347  0.95744321  0.80212429  1.0
  O  O66  1  0.47960150  0.18563482  0.90096349  1.0
  O  O67  1  0.48303566  0.44873935  0.77065749  1.0
  O  O68  1  0.48331924  0.13067562  0.22121571  1.0
  O  O69  1  0.50942107  0.39282897  0.24074299  1.0
  O  O70  1  0.51621411  0.81630744  0.09019625  1.0
  O  O71  1  0.52254129  0.01607429  0.55656291  1.0
  O  O72  1  0.52869475  0.80353299  0.63823301  1.0
  O  O73  1  0.54499734  0.69164864  0.85309200  1.0
  O  O74  1  0.54775459  0.92329152  0.37437656  1.0
  O  O75  1  0.59132772  0.99490887  0.98369229  1.0
  O  O76  1  0.61622109  0.17576301  0.36541552  1.0
  O  O77  1  0.63126411  0.60106338  0.07917657  1.0
  O  O78  1  0.63537855  0.54103947  0.62774251  1.0
  O  O79  1  0.63559577  0.22751341  0.07173665  1.0
  O  O80  1  0.63618460  0.45893791  0.90912261  1.0
  O  O81  1  0.65249727  0.72352494  0.27189816  1.0
  O  O82  1  0.70867566  0.82110157  0.90688737  1.0
  O  O83  1  0.74971126  0.45466755  0.42286309  1.0
  O  O84  1  0.75482843  0.34626161  0.18292041  1.0
  O  O85  1  0.75806495  0.71718969  0.46452221  1.0
  O  O86  1  0.78103335  0.91889300  0.35042406  1.0
  O  O87  1  0.78503620  0.63594775  0.77184563  1.0
  O  O88  1  0.79160277  0.33534370  0.83078278  1.0
  O  O89  1  0.80768742  0.89799970  0.61655566  1.0
  O  O90  1  0.82837298  0.45818145  0.65955012  1.0
  O  O91  1  0.83577667  0.52385755  0.95702732  1.0
  O  O92  1  0.84898989  0.07562287  0.47466951  1.0
  O  O93  1  0.84959847  0.13135826  0.91730847  1.0
  O  O94  1  0.85509334  0.60062630  0.24109036  1.0
  O  O95  1  0.86869785  0.04651840  0.15278496  1.0
  O  O96  1  0.87065260  0.81002593  0.13991906  1.0
  O  O97  1  0.87391633  0.10858308  0.69303191  1.0
  O  O98  1  0.96392215  0.76300457  0.33859361  1.0
  O  O99  1  0.98031387  0.38104286  0.33333333  1.0
  O  O100  1  0.98307219  0.56776738  0.47093555  1.0
  O  O101  1  0.99729984  0.65830069  0.80606604  1.0
