# generated using pymatgen
data_WO2
_symmetry_space_group_name_H-M   R3m
_cell_length_a   5.98942741
_cell_length_b   5.98942741
_cell_length_c   6.73225997
_cell_angle_alpha   63.58752514
_cell_angle_beta   63.58752514
_cell_angle_gamma   60.00000654
_symmetry_Int_Tables_number   160
_chemical_formula_structural   WO2
_chemical_formula_sum   'W4 O8'
_cell_volume   179.45297101
_cell_formula_units_Z   4
loop_
 _symmetry_equiv_pos_site_id
 _symmetry_equiv_pos_as_xyz
  1  'x, y, z'
  2  'y, -x-y-z, z'
  3  '-x-y-z, x, z'
  4  'x, -x-y-z, z'
  5  'y, x, z'
  6  '-x-y-z, y, z'
loop_
 _atom_site_type_symbol
 _atom_site_label
 _atom_site_symmetry_multiplicity
 _atom_site_fract_x
 _atom_site_fract_y
 _atom_site_fract_z
 _atom_site_occupancy
  W  W0  3  0.13594600  0.61317300  0.63770800  1.0
  W  W1  1  0.24990200  0.24990200  0.25029400  1.0
  O  O2  3  0.36489000  0.36489000  0.40876900  1.0
  O  O3  3  0.41148200  0.89540700  0.79770400  1.0
  O  O4  1  0.36572100  0.36572100  0.90283700  1.0
  O  O5  1  0.85110900  0.85110900  0.44667300  1.0
