# generated using pymatgen
data_WO2
_symmetry_space_group_name_H-M   P1
_cell_length_a   11.19379685
_cell_length_b   11.36249479
_cell_length_c   12.20578926
_cell_angle_alpha   91.22617388
_cell_angle_beta   92.17834997
_cell_angle_gamma   85.60224803
_symmetry_Int_Tables_number   1
_chemical_formula_structural   WO2
_chemical_formula_sum   'W34 O68'
_cell_volume   1546.49215977
_cell_formula_units_Z   34
loop_
 _symmetry_equiv_pos_site_id
 _symmetry_equiv_pos_as_xyz
  1  'x, y, z'
loop_
 _atom_site_type_symbol
 _atom_site_label
 _atom_site_symmetry_multiplicity
 _atom_site_fract_x
 _atom_site_fract_y
 _atom_site_fract_z
 _atom_site_occupancy
  W  W0  1  0.04108801  0.86207504  0.47008107  1.0
  W  W1  1  0.04479162  0.14352007  0.38250803  1.0
  W  W2  1  0.06917797  0.72887121  0.94075428  1.0
  W  W3  1  0.09154232  0.41638267  0.84180241  1.0
  W  W4  1  0.09549146  0.90598920  0.18956359  1.0
  W  W5  1  0.16657673  0.64612440  0.18784156  1.0
  W  W6  1  0.17033008  0.53641369  0.47776502  1.0
  W  W7  1  0.23540062  0.16043912  0.66301054  1.0
  W  W8  1  0.29819170  0.63557126  0.75254742  1.0
  W  W9  1  0.32933366  0.14969423  0.37052860  1.0
  W  W10  1  0.35746132  0.34453105  0.00874544  1.0
  W  W11  1  0.35770397  0.00000909  0.05528498  1.0
  W  W12  1  0.42905392  0.93030969  0.80049681  1.0
  W  W13  1  0.43768379  0.61467206  0.14254911  1.0
  W  W14  1  0.43887323  0.88061478  0.30237108  1.0
  W  W15  1  0.44727601  0.39320225  0.59525780  1.0
  W  W16  1  0.55262537  0.44558187  0.85439726  1.0
  W  W17  1  0.56866529  0.34272849  0.24202177  1.0
  W  W18  1  0.57998051  0.13447861  0.94033726  1.0
  W  W19  1  0.59975767  0.82179718  0.53969419  1.0
  W  W20  1  0.61233732  0.15864514  0.43940364  1.0
  W  W21  1  0.61524350  0.83871942  0.07896021  1.0
  W  W22  1  0.61834699  0.64497756  0.34243276  1.0
  W  W23  1  0.71371896  0.89829158  0.33704301  1.0
  W  W24  1  0.76613601  0.68030407  0.90596925  1.0
  W  W25  1  0.79833690  0.37020963  0.00011300  1.0
  W  W26  1  0.80029877  0.16083404  0.18286397  1.0
  W  W27  1  0.82195554  0.94065063  0.83443057  1.0
  W  W28  1  0.82809389  0.65304005  0.13864175  1.0
  W  W29  1  0.83236342  0.44345776  0.70363771  1.0
  W  W30  1  0.84693068  0.67389117  0.47855028  1.0
  W  W31  1  0.86510009  0.38459200  0.40716699  1.0
  W  W32  1  0.91936070  0.12849078  0.61832897  1.0
  W  W33  1  0.97627186  0.05601796  0.99090290  1.0
  O  O34  1  0.00561716  0.44421395  0.69872485  1.0
  O  O35  1  0.03158174  0.67720642  0.48185782  1.0
  O  O36  1  0.03420479  0.55921102  0.91200672  1.0
  O  O37  1  0.05093878  0.43780223  0.44746212  1.0
  O  O38  1  0.05817409  0.88934662  0.01535010  1.0
  O  O39  1  0.06626568  0.11042855  0.67918681  1.0
  O  O40  1  0.08629373  0.11743300  0.91783624  1.0
  O  O41  1  0.11535971  0.95998373  0.35904738  1.0
  O  O42  1  0.12508950  0.86636657  0.59416999  1.0
  O  O43  1  0.15858323  0.73900957  0.82133776  1.0
  O  O44  1  0.16892246  0.27566617  0.77326977  1.0
  O  O45  1  0.17825095  0.18787937  0.29021425  1.0
  O  O46  1  0.19513698  0.59505051  0.33206533  1.0
  O  O47  1  0.19602267  0.36518619  0.99007184  1.0
  O  O48  1  0.20369357  0.15323046  0.49929430  1.0
  O  O49  1  0.21744731  0.68202291  0.04229796  1.0
  O  O50  1  0.23752263  0.49814433  0.81537095  1.0
  O  O51  1  0.24031389  0.61973879  0.59966205  1.0
  O  O52  1  0.29857879  0.95630475  0.91293981  1.0
  O  O53  1  0.30719094  0.01355518  0.69651230  1.0
  O  O54  1  0.32976259  0.43997934  0.47665443  1.0
  O  O55  1  0.35165179  0.27122666  0.64455725  1.0
  O  O56  1  0.37926729  0.03321229  0.23809071  1.0
  O  O57  1  0.39738739  0.35813210  0.15521578  1.0
  O  O58  1  0.40030853  0.17175969  0.02231273  1.0
  O  O59  1  0.40340190  0.75928861  0.80691017  1.0
  O  O60  1  0.43098012  0.84448501  0.12472417  1.0
  O  O61  1  0.43537665  0.31886042  0.87308146  1.0
  O  O62  1  0.43537669  0.49610238  0.99580785  1.0
  O  O63  1  0.43853337  0.71081029  0.29547736  1.0
  O  O64  1  0.44090454  0.87944136  0.45803513  1.0
  O  O65  1  0.45299720  0.11505410  0.48576084  1.0
  O  O66  1  0.45355647  0.51474234  0.72053839  1.0
  O  O67  1  0.47669625  0.09413801  0.81645496  1.0
  O  O68  1  0.49092084  0.22019566  0.32252127  1.0
  O  O69  1  0.51661607  0.95637393  0.96573994  1.0
  O  O70  1  0.52298207  0.50637719  0.26664427  1.0
  O  O71  1  0.54119236  0.88187455  0.68642792  1.0
  O  O72  1  0.56319231  0.66647232  0.51180965  1.0
  O  O73  1  0.58291647  0.28596856  0.54656085  1.0
  O  O74  1  0.63186166  0.66016277  0.15891282  1.0
  O  O75  1  0.65134426  0.10174012  0.07927835  1.0
  O  O76  1  0.65138314  0.30127152  0.93350551  1.0
  O  O77  1  0.66053643  0.98767536  0.48986243  1.0
  O  O78  1  0.67051508  0.41624357  0.73262326  1.0
  O  O79  1  0.68389265  0.52657315  0.93989448  1.0
  O  O80  1  0.69567983  0.31007740  0.37098254  1.0
  O  O81  1  0.70649713  0.33117707  0.14534082  1.0
  O  O82  1  0.71613184  0.08441478  0.31865407  1.0
  O  O83  1  0.71731052  0.08316310  0.85838241  1.0
  O  O84  1  0.72552835  0.85234715  0.94678563  1.0
  O  O85  1  0.76584208  0.76388308  0.59821605  1.0
  O  O86  1  0.77311959  0.82490121  0.17978137  1.0
  O  O87  1  0.80614930  0.56638424  0.34378164  1.0
  O  O88  1  0.81616240  0.58945552  0.76815954  1.0
  O  O89  1  0.81932832  0.49543718  0.55556456  1.0
  O  O90  1  0.84327102  0.26137240  0.68128206  1.0
  O  O91  1  0.85538826  0.00480537  0.68566907  1.0
  O  O92  1  0.86634161  0.48194844  0.09166899  1.0
  O  O93  1  0.87568599  0.21319436  0.03210044  1.0
  O  O94  1  0.88322920  0.82672466  0.39844444  1.0
  O  O95  1  0.89875905  0.38060121  0.86550534  1.0
  O  O96  1  0.91052217  0.77589030  0.86002105  1.0
  O  O97  1  0.92768262  0.24528262  0.29091047  1.0
  O  O98  1  0.93911832  0.23860105  0.49816433  1.0
  O  O99  1  0.94944252  0.03142138  0.15331944  1.0
  O  O100  1  0.95618194  0.02890699  0.48522250  1.0
  O  O101  1  0.99957539  0.68265510  0.10471968  1.0
