# generated using pymatgen
data_WO2
_symmetry_space_group_name_H-M   Pnma
_cell_length_a   3.31464300
_cell_length_b   9.18138500
_cell_length_c   11.20331800
_cell_angle_alpha   90.00000000
_cell_angle_beta   90.00000000
_cell_angle_gamma   90.00000000
_symmetry_Int_Tables_number   62
_chemical_formula_structural   WO2
_chemical_formula_sum   'W8 O16'
_cell_volume   340.95072817
_cell_formula_units_Z   8
loop_
 _symmetry_equiv_pos_site_id
 _symmetry_equiv_pos_as_xyz
  1  'x, y, z'
  2  '-x, -y, -z'
  3  '-x, -y+1/2, z+1/2'
  4  'x, y+1/2, -z+1/2'
  5  '-x+1/2, y+1/2, -z+1/2'
  6  'x+1/2, -y+1/2, z+1/2'
  7  'x+1/2, -y, -z'
  8  '-x+1/2, y, z'
loop_
 _atom_site_type_symbol
 _atom_site_label
 _atom_site_symmetry_multiplicity
 _atom_site_fract_x
 _atom_site_fract_y
 _atom_site_fract_z
 _atom_site_occupancy
  W  W0  4  0.25000000  0.06624100  0.61238500  1.0
  W  W1  4  0.25000000  0.07470000  0.11065000  1.0
  O  O2  4  0.25000000  0.06373800  0.92708100  1.0
  O  O3  4  0.25000000  0.28542300  0.64379300  1.0
  O  O4  4  0.25000000  0.39019000  0.99945700  1.0
  O  O5  4  0.25000000  0.49234500  0.22145500  1.0
