# generated using pymatgen
data_WO2
_symmetry_space_group_name_H-M   P1
_cell_length_a   11.54615905
_cell_length_b   11.83957543
_cell_length_c   12.45599324
_cell_angle_alpha   97.09883318
_cell_angle_beta   91.05531695
_cell_angle_gamma   92.28812446
_symmetry_Int_Tables_number   1
_chemical_formula_structural   WO2
_chemical_formula_sum   'W34 O68'
_cell_volume   1687.88643184
_cell_formula_units_Z   34
loop_
 _symmetry_equiv_pos_site_id
 _symmetry_equiv_pos_as_xyz
  1  'x, y, z'
loop_
 _atom_site_type_symbol
 _atom_site_label
 _atom_site_symmetry_multiplicity
 _atom_site_fract_x
 _atom_site_fract_y
 _atom_site_fract_z
 _atom_site_occupancy
  W  W0  1  0.01097875  0.01629333  0.87461757  1.0
  W  W1  1  0.06907586  0.18521252  0.65405643  1.0
  W  W2  1  0.10184441  0.47874064  0.91032602  1.0
  W  W3  1  0.11646998  0.77985392  0.85996540  1.0
  W  W4  1  0.12649535  0.74505996  0.31288466  1.0
  W  W5  1  0.21297898  0.48001213  0.35116968  1.0
  W  W6  1  0.22420035  0.40806457  0.58838750  1.0
  W  W7  1  0.23364111  0.97817378  0.98926315  1.0
  W  W8  1  0.25618413  0.28039552  0.09895620  1.0
  W  W9  1  0.26734299  0.70568814  0.52429763  1.0
  W  W10  1  0.27239361  0.64345916  0.04373255  1.0
  W  W11  1  0.29668626  0.00084604  0.49378235  1.0
  W  W12  1  0.29710057  0.21839304  0.83511012  1.0
  W  W13  1  0.30295280  0.99178148  0.24412361  1.0
  W  W14  1  0.33694256  0.58648611  0.77081361  1.0
  W  W15  1  0.47283825  0.43727747  0.97778781  1.0
  W  W16  1  0.48738810  0.14805267  0.13272428  1.0
  W  W17  1  0.50359913  0.94290296  0.83425748  1.0
  W  W18  1  0.51917937  0.41431182  0.25985405  1.0
  W  W19  1  0.52663541  0.16795961  0.43188108  1.0
  W  W20  1  0.54642334  0.15295293  0.69267349  1.0
  W  W21  1  0.55788477  0.93262082  0.22147730  1.0
  W  W22  1  0.58579541  0.61706299  0.46954745  1.0
  W  W23  1  0.69920858  0.60453637  0.20269927  1.0
  W  W24  1  0.70354506  0.79679937  0.01123557  1.0
  W  W25  1  0.75128870  0.06218822  0.01554860  1.0
  W  W26  1  0.75619361  0.38903741  0.43443066  1.0
  W  W27  1  0.78574220  0.06323641  0.37829696  1.0
  W  W28  1  0.80661516  0.34133256  0.73013108  1.0
  W  W29  1  0.81897989  0.68623214  0.60844965  1.0
  W  W30  1  0.84642793  0.58949622  0.82745919  1.0
  W  W31  1  0.86593721  0.90955456  0.21317087  1.0
  W  W32  1  0.94772592  0.24653688  0.20487235  1.0
  W  W33  1  0.95421305  0.47585763  0.18745368  1.0
  O  O34  1  0.00850169  0.62873331  0.88009062  1.0
  O  O35  1  0.02661277  0.46725797  0.06047451  1.0
  O  O36  1  0.05876363  0.03878203  0.01615580  1.0
  O  O37  1  0.06530564  0.55478167  0.30093775  1.0
  O  O38  1  0.08747656  0.31118811  0.56261148  1.0
  O  O39  1  0.10087359  0.23506483  0.17258983  1.0
  O  O40  1  0.10799996  0.10401900  0.79134997  1.0
  O  O41  1  0.12943834  0.76192923  0.48579068  1.0
  O  O42  1  0.16748202  0.69036439  0.14629835  1.0
  O  O43  1  0.17988688  0.07198005  0.56678797  1.0
  O  O44  1  0.18036165  0.54046021  0.51775491  1.0
  O  O45  1  0.19417150  0.48903001  0.75742718  1.0
  O  O46  1  0.19934917  0.92127357  0.12556805  1.0
  O  O47  1  0.20761428  0.92168977  0.35783424  1.0
  O  O48  1  0.21370272  0.33462125  0.94708308  1.0
  O  O49  1  0.24068379  0.25788516  0.70116724  1.0
  O  O50  1  0.27000635  0.64753266  0.35927757  1.0
  O  O51  1  0.27348241  0.41153492  0.21077663  1.0
  O  O52  1  0.27386254  0.36432668  0.43634060  1.0
  O  O53  1  0.27558042  0.69884592  0.89878837  1.0
  O  O54  1  0.28012177  0.14308158  0.96449444  1.0
  O  O55  1  0.28366231  0.69688484  0.67968155  1.0
  O  O56  1  0.31429521  0.14199651  0.16776775  1.0
  O  O57  1  0.34417987  0.86060204  0.53714198  1.0
  O  O58  1  0.35937511  0.10081056  0.38590588  1.0
  O  O59  1  0.37109787  0.46866676  0.64209955  1.0
  O  O60  1  0.40449551  0.96141483  0.96204425  1.0
  O  O61  1  0.41047184  0.08940786  0.77961747  1.0
  O  O62  1  0.41578679  0.57908120  0.06587870  1.0
  O  O63  1  0.41945017  0.88860881  0.29266556  1.0
  O  O64  1  0.43381665  0.63561989  0.50539909  1.0
  O  O65  1  0.43785956  0.30791696  0.85567480  1.0
  O  O66  1  0.44476904  0.31932120  0.09426859  1.0
  O  O67  1  0.45041134  0.07598569  0.56158353  1.0
  O  O68  1  0.45698808  0.54457105  0.85354986  1.0
  O  O69  1  0.47772267  0.80209152  0.77551898  1.0
  O  O70  1  0.52189744  0.23323680  0.27507796  1.0
  O  O71  1  0.55791855  0.82125941  0.10068600  1.0
  O  O72  1  0.56570862  0.25140858  0.57547793  1.0
  O  O73  1  0.56602543  0.60551015  0.30769860  1.0
  O  O74  1  0.59105015  0.44116988  0.42209355  1.0
  O  O75  1  0.60304753  0.13771856  0.02030829  1.0
  O  O76  1  0.60866962  0.01737232  0.36794372  1.0
  O  O77  1  0.60981077  0.01916895  0.73409913  1.0
  O  O78  1  0.64881020  0.92129344  0.92373008  1.0
  O  O79  1  0.65904207  0.73548834  0.56392495  1.0
  O  O80  1  0.67326051  0.24089372  0.76316775  1.0
  O  O81  1  0.70474546  0.21488649  0.39933521  1.0
  O  O82  1  0.70640508  0.01093341  0.17309035  1.0
  O  O83  1  0.72090574  0.48419942  0.79940466  1.0
  O  O84  1  0.76223297  0.57070128  0.47748755  1.0
  O  O85  1  0.76316277  0.76164253  0.16880126  1.0
  O  O86  1  0.77651172  0.65365031  0.96163093  1.0
  O  O87  1  0.78476379  0.71800990  0.76826777  1.0
  O  O88  1  0.79084133  0.47724895  0.14892991  1.0
  O  O89  1  0.79794957  0.35915608  0.57736884  1.0
  O  O90  1  0.83636467  0.91422680  0.04151238  1.0
  O  O91  1  0.84066135  0.20134156  0.09369226  1.0
  O  O92  1  0.85239987  0.04008857  0.49945564  1.0
  O  O93  1  0.86656107  0.07851519  0.89204000  1.0
  O  O94  1  0.88164609  0.36379140  0.31880879  1.0
  O  O95  1  0.89777408  0.56547015  0.67831305  1.0
  O  O96  1  0.90942152  0.08816160  0.26876658  1.0
  O  O97  1  0.92004023  0.21170864  0.69155783  1.0
  O  O98  1  0.92308171  0.78507356  0.57393412  1.0
  O  O99  1  0.92370519  0.42762927  0.83509665  1.0
  O  O100  1  0.97291842  0.87193631  0.81330517  1.0
  O  O101  1  0.98164401  0.84015704  0.27482799  1.0
