# generated using pymatgen
data_WO2
_symmetry_space_group_name_H-M   P1
_cell_length_a   11.50445407
_cell_length_b   11.71865838
_cell_length_c   12.06294904
_cell_angle_alpha   89.75177283
_cell_angle_beta   87.13234626
_cell_angle_gamma   88.25500939
_symmetry_Int_Tables_number   1
_chemical_formula_structural   WO2
_chemical_formula_sum   'W34 O68'
_cell_volume   1623.49162698
_cell_formula_units_Z   34
loop_
 _symmetry_equiv_pos_site_id
 _symmetry_equiv_pos_as_xyz
  1  'x, y, z'
loop_
 _atom_site_type_symbol
 _atom_site_label
 _atom_site_symmetry_multiplicity
 _atom_site_fract_x
 _atom_site_fract_y
 _atom_site_fract_z
 _atom_site_occupancy
  W  W0  1  0.11241661  0.69409026  0.41228979  1.0
  W  W1  1  0.13457683  0.96160327  0.28694332  1.0
  W  W2  1  0.21461581  0.45627089  0.28870253  1.0
  W  W3  1  0.21896391  0.80448152  0.93437637  1.0
  W  W4  1  0.23657469  0.25021693  0.86485280  1.0
  W  W5  1  0.23829245  0.47552113  0.96728455  1.0
  W  W6  1  0.28395912  0.05838064  0.02785755  1.0
  W  W7  1  0.30009702  0.18183022  0.42715723  1.0
  W  W8  1  0.30777796  0.92467992  0.44422318  1.0
  W  W9  1  0.34587529  0.27244718  0.11722722  1.0
  W  W10  1  0.35395364  0.49575034  0.49245707  1.0
  W  W11  1  0.42682930  0.87071767  0.17004451  1.0
  W  W12  1  0.44261362  0.96691207  0.83703409  1.0
  W  W13  1  0.48474509  0.39557433  0.74314396  1.0
  W  W14  1  0.54228653  0.19158175  0.96553257  1.0
  W  W15  1  0.56241409  0.68173631  0.77463002  1.0
  W  W16  1  0.56838424  0.30764749  0.51558035  1.0
  W  W17  1  0.61669473  0.16212063  0.70135108  1.0
  W  W18  1  0.66155793  0.53391845  0.36424027  1.0
  W  W19  1  0.66182588  0.00705549  0.40891660  1.0
  W  W20  1  0.66937768  0.56138488  0.05328084  1.0
  W  W21  1  0.74748662  0.76670528  0.18283009  1.0
  W  W22  1  0.76382277  0.73208986  0.52543383  1.0
  W  W23  1  0.78597861  0.46809995  0.65021788  1.0
  W  W24  1  0.80957348  0.29550085  0.31631342  1.0
  W  W25  1  0.88622471  0.96168939  0.70037927  1.0
  W  W26  1  0.88689224  0.04656166  0.25431890  1.0
  W  W27  1  0.92751419  0.51523849  0.29410195  1.0
  W  W28  1  0.94528567  0.41774565  0.93277899  1.0
  W  W29  1  0.95114850  0.20612639  0.76050452  1.0
  W  W30  1  0.96036067  0.67317794  0.03191804  1.0
  W  W31  1  0.97605053  0.68977003  0.75815994  1.0
  W  W32  1  0.98491196  0.30600059  0.46959659  1.0
  W  W33  1  0.99270224  0.07710014  0.00127665  1.0
  O  O34  1  0.02565571  0.97626316  0.63981087  1.0
  O  O35  1  0.04833916  0.06563326  0.17179838  1.0
  O  O36  1  0.05757104  0.50713088  0.02534119  1.0
  O  O37  1  0.06139788  0.39493615  0.34313241  1.0
  O  O38  1  0.06896944  0.74610938  0.89325406  1.0
  O  O39  1  0.09495874  0.65867064  0.66585867  1.0
  O  O40  1  0.09753656  0.59573978  0.28055376  1.0
  O  O41  1  0.11518815  0.20392604  0.76494520  1.0
  O  O42  1  0.13462613  0.39445202  0.86636778  1.0
  O  O43  1  0.13646951  0.94893418  0.99613443  1.0
  O  O44  1  0.14273146  0.79438135  0.28922238  1.0
  O  O45  1  0.14629975  0.22362101  0.46122691  1.0
  O  O46  1  0.14978480  0.15834326  0.98513050  1.0
  O  O47  1  0.18664770  0.55332339  0.46766264  1.0
  O  O48  1  0.20674064  0.79103908  0.49112552  1.0
  O  O49  1  0.25705260  0.43377687  0.12924859  1.0
  O  O50  1  0.25994774  0.66055141  0.99176916  1.0
  O  O51  1  0.27110420  0.04690846  0.53869927  1.0
  O  O52  1  0.28186881  0.97397134  0.18109497  1.0
  O  O53  1  0.29286818  0.86861734  0.80959166  1.0
  O  O54  1  0.29873604  0.28294467  0.28347531  1.0
  O  O55  1  0.35965317  0.52726536  0.32865090  1.0
  O  O56  1  0.36315811  0.27057476  0.77473064  1.0
  O  O57  1  0.36893989  0.46910082  0.64980835  1.0
  O  O58  1  0.37383727  0.89369760  0.00424472  1.0
  O  O59  1  0.37592897  0.48039218  0.88475374  1.0
  O  O60  1  0.39265580  0.30754256  0.48584882  1.0
  O  O61  1  0.39624862  0.83945805  0.33046108  1.0
  O  O62  1  0.40679486  0.06713502  0.37209731  1.0
  O  O63  1  0.41634836  0.66693672  0.75304991  1.0
  O  O64  1  0.44320318  0.10933667  0.09022522  1.0
  O  O65  1  0.47681094  0.05763312  0.70608742  1.0
  O  O66  1  0.50142047  0.32670164  0.04718429  1.0
  O  O67  1  0.52899668  0.48297477  0.47496720  1.0
  O  O68  1  0.55362454  0.83082801  0.83436866  1.0
  O  O69  1  0.58290741  0.83046836  0.15485077  1.0
  O  O70  1  0.59563104  0.06566066  0.87297674  1.0
  O  O71  1  0.59564283  0.28634773  0.82938997  1.0
  O  O72  1  0.60529542  0.63101869  0.92964681  1.0
  O  O73  1  0.61375596  0.51522605  0.73630108  1.0
  O  O74  1  0.61483377  0.12758088  0.52313195  1.0
  O  O75  1  0.62259483  0.53122699  0.20262271  1.0
  O  O76  1  0.62526200  0.72728501  0.63870561  1.0
  O  O77  1  0.64556873  0.86492599  0.46959792  1.0
  O  O78  1  0.64921680  0.35012999  0.36434606  1.0
  O  O79  1  0.70816752  0.30649249  0.60934010  1.0
  O  O80  1  0.71891239  0.69132292  0.34719085  1.0
  O  O81  1  0.73164033  0.13610078  0.31334612  1.0
  O  O82  1  0.73516323  0.56006706  0.50751569  1.0
  O  O83  1  0.76682205  0.92302860  0.28104834  1.0
  O  O84  1  0.78885166  0.45241684  0.00595996  1.0
  O  O85  1  0.79175827  0.10134871  0.72720817  1.0
  O  O86  1  0.81664702  0.88911435  0.58864713  1.0
  O  O87  1  0.84668668  0.64793407  0.65967840  1.0
  O  O88  1  0.85384553  0.06725778  0.08430773  1.0
  O  O89  1  0.86100534  0.82077601  0.07022706  1.0
  O  O90  1  0.88421103  0.37764957  0.20018905  1.0
  O  O91  1  0.88491154  0.36414465  0.77910428  1.0
  O  O92  1  0.88585305  0.83501010  0.79326853  1.0
  O  O93  1  0.89099808  0.65042806  0.19150499  1.0
  O  O94  1  0.92117286  0.58713869  0.87747290  1.0
  O  O95  1  0.93735157  0.18433854  0.35143330  1.0
  O  O96  1  0.94518182  0.43246309  0.55310168  1.0
  O  O97  1  0.94548214  0.21157195  0.60423986  1.0
  O  O98  1  0.94587727  0.23527877  0.94161364  1.0
  O  O99  1  0.95639363  0.70512637  0.44702082  1.0
  O  O100  1  0.95868080  0.04991648  0.84334746  1.0
  O  O101  1  0.98788577  0.96908732  0.36958743  1.0
