# generated using pymatgen
data_WO2
_symmetry_space_group_name_H-M   Cm
_cell_length_a   6.48418313
_cell_length_b   6.48418313
_cell_length_c   15.03197334
_cell_angle_alpha   89.58287789
_cell_angle_beta   89.58287789
_cell_angle_gamma   60.59298945
_symmetry_Int_Tables_number   8
_chemical_formula_structural   WO2
_chemical_formula_sum   'W12 O24'
_cell_volume   550.56158763
_cell_formula_units_Z   12
loop_
 _symmetry_equiv_pos_site_id
 _symmetry_equiv_pos_as_xyz
  1  'x, y, z'
  2  'y, x, z'
loop_
 _atom_site_type_symbol
 _atom_site_label
 _atom_site_symmetry_multiplicity
 _atom_site_fract_x
 _atom_site_fract_y
 _atom_site_fract_z
 _atom_site_occupancy
  W  W0  2  0.00635600  0.48506600  0.50927100  1.0
  W  W1  2  0.16251300  0.66582500  0.16450700  1.0
  W  W2  2  0.34098800  0.81836700  0.83058600  1.0
  W  W3  1  0.00915600  0.00915600  0.51052100  1.0
  W  W4  1  0.16609600  0.16609600  0.04220700  1.0
  W  W5  1  0.33964000  0.33964000  0.82950700  1.0
  W  W6  1  0.66974800  0.66974800  0.15649200  1.0
  W  W7  1  0.83387500  0.83387500  0.33815000  1.0
  W  W8  1  0.83434700  0.83434700  0.72552700  1.0
  O  O9  2  0.00248100  0.49263300  0.75900800  1.0
  O  O10  2  0.10433300  0.70350600  0.43661400  1.0
  O  O11  2  0.19802600  0.64487400  0.89309600  1.0
  O  O12  2  0.31844700  0.83984400  0.08946100  1.0
  O  O13  2  0.31854300  0.84981800  0.56683500  1.0
  O  O14  2  0.56031200  0.97239600  0.24346500  1.0
  O  O15  1  0.00627500  0.00627500  0.76061300  1.0
  O  O16  1  0.16118800  0.16118800  0.43668700  1.0
  O  O17  1  0.16517400  0.16517400  0.90557400  1.0
  O  O18  1  0.31535800  0.31535800  0.57011000  1.0
  O  O19  1  0.32636300  0.32636300  0.09532800  1.0
  O  O20  1  0.49485000  0.49485000  0.21808300  1.0
  O  O21  1  0.50155100  0.50155100  0.75739300  1.0
  O  O22  1  0.64951700  0.64951700  0.89426100  1.0
  O  O23  1  0.69865700  0.69865700  0.43196100  1.0
  O  O24  1  0.83760900  0.83760900  0.58915600  1.0
  O  O25  1  0.84914800  0.84914800  0.09454900  1.0
  O  O26  1  0.97281500  0.97281500  0.24633800  1.0
