# generated using pymatgen
data_WO2
_symmetry_space_group_name_H-M   P1
_cell_length_a   11.37265065
_cell_length_b   11.81198495
_cell_length_c   11.68176058
_cell_angle_alpha   91.87394362
_cell_angle_beta   93.25581562
_cell_angle_gamma   87.80697974
_symmetry_Int_Tables_number   1
_chemical_formula_structural   WO2
_chemical_formula_sum   'W34 O68'
_cell_volume   1564.83919810
_cell_formula_units_Z   34
loop_
 _symmetry_equiv_pos_site_id
 _symmetry_equiv_pos_as_xyz
  1  'x, y, z'
loop_
 _atom_site_type_symbol
 _atom_site_label
 _atom_site_symmetry_multiplicity
 _atom_site_fract_x
 _atom_site_fract_y
 _atom_site_fract_z
 _atom_site_occupancy
  W  W0  1  0.02432417  0.64876974  0.59845682  1.0
  W  W1  1  0.03639943  0.29063198  0.00250333  1.0
  W  W2  1  0.05462649  0.15607212  0.70711363  1.0
  W  W3  1  0.08196250  0.87007464  0.76778521  1.0
  W  W4  1  0.08334858  0.61816224  0.28095652  1.0
  W  W5  1  0.08771918  0.00914730  0.01443448  1.0
  W  W6  1  0.17491462  0.32659553  0.54611570  1.0
  W  W7  1  0.21586097  0.59461105  0.01564858  1.0
  W  W8  1  0.22968447  0.89761628  0.25126917  1.0
  W  W9  1  0.25299711  0.36792365  0.85325383  1.0
  W  W10  1  0.28181406  0.21148167  0.20211508  1.0
  W  W11  1  0.28783543  0.98480515  0.54404982  1.0
  W  W12  1  0.29307295  0.59538914  0.43261817  1.0
  W  W13  1  0.33033684  0.74836029  0.74206988  1.0
  W  W14  1  0.38578115  0.44620918  0.23006640  1.0
  W  W15  1  0.41599644  0.88532679  0.02898376  1.0
  W  W16  1  0.43730286  0.20547745  0.70783127  1.0
  W  W17  1  0.47000978  0.21234026  0.03734804  1.0
  W  W18  1  0.47060200  0.37457766  0.52064022  1.0
  W  W19  1  0.47539676  0.59586259  0.95414514  1.0
  W  W20  1  0.48325561  0.79976266  0.34703297  1.0
  W  W21  1  0.53053687  0.95589403  0.78771532  1.0
  W  W22  1  0.55744041  0.63717934  0.62227074  1.0
  W  W23  1  0.67875128  0.98292292  0.23446862  1.0
  W  W24  1  0.67900518  0.89565465  0.98141762  1.0
  W  W25  1  0.68366641  0.58261988  0.21130540  1.0
  W  W26  1  0.74245380  0.06728376  0.63551144  1.0
  W  W27  1  0.75734584  0.76412163  0.47448053  1.0
  W  W28  1  0.78290282  0.19253837  0.02730521  1.0
  W  W29  1  0.81205492  0.75518832  0.79588532  1.0
  W  W30  1  0.87826543  0.42756791  0.82040908  1.0
  W  W31  1  0.88271307  0.39402658  0.23734942  1.0
  W  W32  1  0.91804045  0.35431743  0.54534437  1.0
  W  W33  1  0.98323719  0.92706177  0.33439420  1.0
  O  O34  1  0.01620819  0.29274477  0.81923826  1.0
  O  O35  1  0.02195819  0.87454712  0.92566310  1.0
  O  O36  1  0.03255228  0.46209799  0.28907204  1.0
  O  O37  1  0.05453606  0.45544073  0.57218200  1.0
  O  O38  1  0.07420186  0.97983141  0.19269772  1.0
  O  O39  1  0.09106656  0.63248518  0.10996284  1.0
  O  O40  1  0.09184030  0.79193492  0.27225091  1.0
  O  O41  1  0.10097625  0.04045776  0.82961725  1.0
  O  O42  1  0.11471632  0.64917212  0.46045132  1.0
  O  O43  1  0.13045000  0.44740951  0.95491110  1.0
  O  O44  1  0.14867845  0.69626686  0.73304276  1.0
  O  O45  1  0.15253590  0.09389068  0.59269439  1.0
  O  O46  1  0.16375074  0.17050556  0.07241651  1.0
  O  O47  1  0.16885882  0.94089576  0.40492678  1.0
  O  O48  1  0.17266354  0.25563411  0.41275075  1.0
  O  O49  1  0.21839372  0.88343867  0.66648984  1.0
  O  O50  1  0.23727296  0.92249361  0.06092694  1.0
  O  O51  1  0.24641670  0.36053613  0.14647173  1.0
  O  O52  1  0.25512241  0.27224028  0.69840495  1.0
  O  O53  1  0.28172397  0.06463306  0.25258063  1.0
  O  O54  1  0.29819586  0.43876850  0.53136903  1.0
  O  O55  1  0.31569651  0.74808625  0.34105955  1.0
  O  O56  1  0.32425884  0.52123725  0.88483355  1.0
  O  O57  1  0.34235537  0.71989869  0.98069974  1.0
  O  O58  1  0.37489132  0.55072717  0.09763597  1.0
  O  O59  1  0.38398210  0.65773647  0.59116586  1.0
  O  O60  1  0.38485979  0.28527802  0.30933439  1.0
  O  O61  1  0.38559102  0.88659322  0.85241023  1.0
  O  O62  1  0.39088733  0.87025699  0.20420922  1.0
  O  O63  1  0.39418415  0.24285311  0.88225085  1.0
  O  O64  1  0.39784945  0.03773257  0.68099391  1.0
  O  O65  1  0.41393152  0.92574787  0.45665773  1.0
  O  O66  1  0.44407499  0.21309052  0.53476091  1.0
  O  O67  1  0.44670697  0.49390016  0.38815935  1.0
  O  O68  1  0.45867792  0.05566830  0.03181065  1.0
  O  O69  1  0.49015923  0.34966851  0.11527035  1.0
  O  O70  1  0.49449406  0.35971876  0.69469842  1.0
  O  O71  1  0.50000620  0.65703267  0.79032782  1.0
  O  O72  1  0.54513511  0.67172846  0.24204827  1.0
  O  O73  1  0.57759392  0.71701253  0.48024889  1.0
  O  O74  1  0.58494315  0.88179713  0.12515159  1.0
  O  O75  1  0.60022380  0.49393406  0.57823558  1.0
  O  O76  1  0.60746533  0.10838972  0.72041595  1.0
  O  O77  1  0.60763273  0.10950042  0.27886931  1.0
  O  O78  1  0.61281650  0.56707243  0.04849309  1.0
  O  O79  1  0.63134733  0.22251655  0.96240019  1.0
  O  O80  1  0.64908600  0.87175707  0.35722251  1.0
  O  O81  1  0.66193894  0.45332205  0.27998539  1.0
  O  O82  1  0.70514234  0.72218136  0.64994872  1.0
  O  O83  1  0.71788817  0.92155758  0.80708135  1.0
  O  O84  1  0.72826720  0.04097450  0.07315578  1.0
  O  O85  1  0.73287404  0.16694045  0.52686179  1.0
  O  O86  1  0.73810373  0.74499569  0.94855441  1.0
  O  O87  1  0.74313149  0.92787855  0.56576333  1.0
  O  O88  1  0.76986865  0.66757486  0.32267000  1.0
  O  O89  1  0.80486904  0.24534134  0.17849460  1.0
  O  O90  1  0.81741269  0.36588837  0.67147975  1.0
  O  O91  1  0.82682693  0.52749448  0.14215066  1.0
  O  O92  1  0.84549354  0.92667817  0.23512135  1.0
  O  O93  1  0.85205480  0.34311535  0.96188685  1.0
  O  O94  1  0.86763444  0.62387294  0.53347100  1.0
  O  O95  1  0.88261486  0.58253476  0.80530935  1.0
  O  O96  1  0.88573838  0.10023457  0.71121549  1.0
  O  O97  1  0.90089330  0.31177484  0.39775365  1.0
  O  O98  1  0.91860132  0.82943439  0.43295611  1.0
  O  O99  1  0.94391546  0.13163134  0.99941699  1.0
  O  O100  1  0.95200307  0.79540449  0.67816394  1.0
  O  O101  1  0.96055681  0.05934735  0.40398545  1.0
