# generated using pymatgen
data_WO2
_symmetry_space_group_name_H-M   P1
_cell_length_a   11.47010319
_cell_length_b   11.74684427
_cell_length_c   11.65482744
_cell_angle_alpha   91.02258692
_cell_angle_beta   96.47927809
_cell_angle_gamma   83.65433326
_symmetry_Int_Tables_number   1
_chemical_formula_structural   WO2
_chemical_formula_sum   'W34 O68'
_cell_volume   1550.72957886
_cell_formula_units_Z   34
loop_
 _symmetry_equiv_pos_site_id
 _symmetry_equiv_pos_as_xyz
  1  'x, y, z'
loop_
 _atom_site_type_symbol
 _atom_site_label
 _atom_site_symmetry_multiplicity
 _atom_site_fract_x
 _atom_site_fract_y
 _atom_site_fract_z
 _atom_site_occupancy
  W  W0  1  0.05015099  0.79760780  0.35107077  1.0
  W  W1  1  0.05055978  0.98003295  0.61321256  1.0
  W  W2  1  0.05779894  0.31167474  0.95148615  1.0
  W  W3  1  0.06219882  0.55255751  0.55355518  1.0
  W  W4  1  0.07078926  0.97665347  0.08268325  1.0
  W  W5  1  0.18810496  0.23658724  0.66902486  1.0
  W  W6  1  0.22813850  0.59779131  0.25342440  1.0
  W  W7  1  0.23241412  0.88775186  0.83441253  1.0
  W  W8  1  0.24679001  0.56245589  0.94102870  1.0
  W  W9  1  0.25432240  0.12210684  0.33123603  1.0
  W  W10  1  0.29114721  0.81170378  0.43294334  1.0
  W  W11  1  0.32203205  0.10593072  0.95507551  1.0
  W  W12  1  0.33936907  0.66557278  0.71689209  1.0
  W  W13  1  0.36133833  0.32168744  0.12426750  1.0
  W  W14  1  0.44225437  0.29644050  0.52401459  1.0
  W  W15  1  0.45686792  0.60054151  0.41887220  1.0
  W  W16  1  0.49475468  0.77689678  0.98244928  1.0
  W  W17  1  0.50494121  0.50096514  0.90052514  1.0
  W  W18  1  0.57693367  0.85866799  0.30367318  1.0
  W  W19  1  0.63576774  0.56308768  0.16335872  1.0
  W  W20  1  0.63821130  0.17540011  0.08100303  1.0
  W  W21  1  0.71303997  0.42372326  0.42095519  1.0
  W  W22  1  0.71431656  0.19951964  0.55907652  1.0
  W  W23  1  0.72581127  0.67216208  0.59484260  1.0
  W  W24  1  0.73381880  0.91735142  0.57511334  1.0
  W  W25  1  0.77878959  0.90401376  0.06048577  1.0
  W  W26  1  0.81039608  0.02127506  0.34716991  1.0
  W  W27  1  0.82463995  0.11541957  0.82438645  1.0
  W  W28  1  0.82723978  0.56034491  0.91379386  1.0
  W  W29  1  0.84864922  0.41264293  0.67294987  1.0
  W  W30  1  0.93713811  0.84041193  0.81176984  1.0
  W  W31  1  0.95137679  0.48864065  0.24782985  1.0
  W  W32  1  0.96930968  0.27383680  0.45981684  1.0
  W  W33  1  0.99899968  0.72000674  0.07084570  1.0
  O  O34  1  0.01856171  0.37763308  0.16150243  1.0
  O  O35  1  0.02040494  0.69706188  0.47230695  1.0
  O  O36  1  0.02269857  0.64885360  0.24021531  1.0
  O  O37  1  0.05276470  0.47905661  0.38591883  1.0
  O  O38  1  0.05404574  0.15127885  0.58612825  1.0
  O  O39  1  0.05637029  0.84445845  0.95967034  1.0
  O  O40  1  0.06285969  0.37623024  0.60217441  1.0
  O  O41  1  0.08535847  0.82915690  0.73775809  1.0
  O  O42  1  0.09042340  0.83816601  0.17743232  1.0
  O  O43  1  0.12262486  0.20353999  0.37842942  1.0
  O  O44  1  0.13135254  0.44209420  0.93736683  1.0
  O  O45  1  0.13373564  0.88718554  0.49320673  1.0
  O  O46  1  0.15862656  0.06558939  0.19518439  1.0
  O  O47  1  0.17297154  0.63352802  0.08155461  1.0
  O  O48  1  0.18185842  0.60272484  0.65654416  1.0
  O  O49  1  0.18399392  0.00586371  0.96329890  1.0
  O  O50  1  0.18974102  0.01793241  0.72576039  1.0
  O  O51  1  0.22325341  0.24081067  0.03245210  1.0
  O  O52  1  0.25633626  0.20872804  0.82428958  1.0
  O  O53  1  0.29198011  0.96511471  0.37247693  1.0
  O  O54  1  0.30118805  0.72882358  0.90412443  1.0
  O  O55  1  0.30252820  0.31995530  0.61073417  1.0
  O  O56  1  0.30471725  0.43614689  0.23010783  1.0
  O  O57  1  0.33210183  0.83758892  0.72143344  1.0
  O  O58  1  0.34048631  0.19330098  0.23766566  1.0
  O  O59  1  0.34984078  0.68396930  0.54512885  1.0
  O  O60  1  0.35358223  0.51297152  0.79685528  1.0
  O  O61  1  0.35954811  0.16373582  0.46151976  1.0
  O  O62  1  0.38503617  0.43672735  0.99501791  1.0
  O  O63  1  0.38781948  0.92780080  0.93370164  1.0
  O  O64  1  0.41855891  0.44426272  0.47400178  1.0
  O  O65  1  0.45867339  0.77894990  0.38045457  1.0
  O  O66  1  0.48225540  0.13626600  0.99702312  1.0
  O  O67  1  0.49478246  0.61723154  0.04302457  1.0
  O  O68  1  0.50188168  0.66329066  0.82795558  1.0
  O  O69  1  0.50561156  0.99749882  0.31058410  1.0
  O  O70  1  0.50623906  0.81702132  0.14752092  1.0
  O  O71  1  0.53919101  0.30409699  0.13706619  1.0
  O  O72  1  0.55848784  0.23917070  0.63954301  1.0
  O  O73  1  0.57310390  0.51950729  0.30381722  1.0
  O  O74  1  0.59941533  0.38778024  0.85153490  1.0
  O  O75  1  0.60340712  0.29076578  0.43543506  1.0
  O  O76  1  0.62495710  0.56190739  0.52571385  1.0
  O  O77  1  0.63302616  0.80154130  0.64594135  1.0
  O  O78  1  0.64386142  0.81025206  0.97125437  1.0
  O  O79  1  0.67729435  0.04775807  0.45970429  1.0
  O  O80  1  0.69523482  0.54723871  0.98799499  1.0
  O  O81  1  0.70103873  0.78553162  0.44621753  1.0
  O  O82  1  0.71728178  0.15247132  0.93102589  1.0
  O  O83  1  0.72691804  0.05903779  0.68029591  1.0
  O  O84  1  0.72908119  0.90054026  0.24132738  1.0
  O  O85  1  0.73723948  0.12346731  0.21348047  1.0
  O  O86  1  0.76147551  0.57045451  0.74428069  1.0
  O  O87  1  0.79819940  0.57291149  0.23560473  1.0
  O  O88  1  0.82075377  0.24400359  0.71459448  1.0
  O  O89  1  0.82141694  0.93583431  0.88440804  1.0
  O  O90  1  0.84177913  0.16330381  0.43172609  1.0
  O  O91  1  0.85111882  0.78584075  0.66838610  1.0
  O  O92  1  0.86484449  0.37981764  0.32720570  1.0
  O  O93  1  0.86709298  0.55219851  0.55757029  1.0
  O  O94  1  0.88503016  0.94265609  0.50900209  1.0
  O  O95  1  0.90500017  0.41634934  0.86221407  1.0
  O  O96  1  0.91575269  0.02234224  0.08367765  1.0
  O  O97  1  0.92345692  0.69192532  0.89286358  1.0
  O  O98  1  0.92377176  0.56729523  0.06470200  1.0
  O  O99  1  0.94799252  0.00794405  0.75093315  1.0
  O  O100  1  0.95717770  0.95701233  0.31267348  1.0
  O  O101  1  0.96570622  0.18262861  0.92069012  1.0
