# generated using pymatgen
data_WO2
_symmetry_space_group_name_H-M   Pnma
_cell_length_a   4.82451000
_cell_length_b   8.48256300
_cell_length_c   10.78188700
_cell_angle_alpha   90.00000000
_cell_angle_beta   90.00000000
_cell_angle_gamma   90.00000000
_symmetry_Int_Tables_number   62
_chemical_formula_structural   WO2
_chemical_formula_sum   'W12 O24'
_cell_volume   441.24020799
_cell_formula_units_Z   12
loop_
 _symmetry_equiv_pos_site_id
 _symmetry_equiv_pos_as_xyz
  1  'x, y, z'
  2  '-x, -y, -z'
  3  'x+1/2, -y, -z+1/2'
  4  '-x+1/2, y, z+1/2'
  5  '-x+1/2, -y+1/2, z+1/2'
  6  'x+1/2, y+1/2, -z+1/2'
  7  '-x, y+1/2, -z'
  8  'x, -y+1/2, z'
loop_
 _atom_site_type_symbol
 _atom_site_label
 _atom_site_symmetry_multiplicity
 _atom_site_fract_x
 _atom_site_fract_y
 _atom_site_fract_z
 _atom_site_occupancy
  W  W0  8  0.00793900  0.09276200  0.36558100  1.0
  W  W1  4  0.02008800  0.25000000  0.10290200  1.0
  O  O2  8  0.20463300  0.57646100  0.80237200  1.0
  O  O3  8  0.21752200  0.08289600  0.53127000  1.0
  O  O4  4  0.24020100  0.75000000  0.05490700  1.0
  O  O5  4  0.24136400  0.25000000  0.76623100  1.0
