# generated using pymatgen
data_WO2
_symmetry_space_group_name_H-M   Cmcm
_cell_length_a   3.23592200
_cell_length_b   5.31186150
_cell_length_c   10.58558200
_cell_angle_alpha   90.00000000
_cell_angle_beta   90.00000000
_cell_angle_gamma   107.73373805
_symmetry_Int_Tables_number   63
_chemical_formula_structural   WO2
_chemical_formula_sum   'W4 O8'
_cell_volume   173.30713276
_cell_formula_units_Z   4
loop_
 _symmetry_equiv_pos_site_id
 _symmetry_equiv_pos_as_xyz
  1  'x, y, z'
  2  '-x, -y, -z'
  3  '-x, -y, z+1/2'
  4  'x, y, -z+1/2'
  5  'x-y, -y, -z'
  6  '-x+y, y, z'
  7  '-x+y, y, -z+1/2'
  8  'x-y, -y, z+1/2'
loop_
 _atom_site_type_symbol
 _atom_site_label
 _atom_site_symmetry_multiplicity
 _atom_site_fract_x
 _atom_site_fract_y
 _atom_site_fract_z
 _atom_site_occupancy
  W  W0  4  0.13301600  0.26603200  0.07509300  1.0
  O  O1  4  0.24131600  0.48263200  0.59634500  1.0
  O  O2  2  0.08300800  0.16601600  0.25000000  1.0
  O  O3  2  0.50000000  0.00000000  0.00000000  1.0
