# generated using pymatgen
data_WO3
_symmetry_space_group_name_H-M   P4/ncc
_cell_length_a   5.40736100
_cell_length_b   5.40736100
_cell_length_c   7.81784500
_cell_angle_alpha   90.00000000
_cell_angle_beta   90.00000000
_cell_angle_gamma   90.00000000
_symmetry_Int_Tables_number   130
_chemical_formula_structural   WO3
_chemical_formula_sum   'W4 O12'
_cell_volume   228.59029310
_cell_formula_units_Z   4
loop_
 _symmetry_equiv_pos_site_id
 _symmetry_equiv_pos_as_xyz
  1  'x, y, z'
  2  '-y+1/2, x+1/2, z'
  3  '-x, -y, z'
  4  'y+1/2, -x+1/2, z'
  5  'x+1/2, -y+1/2, -z+1/2'
  6  '-y, -x, -z+1/2'
  7  '-x+1/2, y+1/2, -z+1/2'
  8  'y, x, -z+1/2'
  9  '-x+1/2, -y+1/2, -z'
  10  'y, -x, -z'
  11  'x+1/2, y+1/2, -z'
  12  '-y, x, -z'
  13  '-x, y, z+1/2'
  14  'y+1/2, x+1/2, z+1/2'
  15  'x, -y, z+1/2'
  16  '-y+1/2, -x+1/2, z+1/2'
loop_
 _atom_site_type_symbol
 _atom_site_label
 _atom_site_symmetry_multiplicity
 _atom_site_fract_x
 _atom_site_fract_y
 _atom_site_fract_z
 _atom_site_occupancy
  W  W0  4  0.00000000  0.50000000  0.23028100  1.0
  O  O1  8  0.22054400  0.22054400  0.25000000  1.0
  O  O2  4  0.00000000  0.50000000  0.49544200  1.0
