# generated using pymatgen
data_WO3
_symmetry_space_group_name_H-M   P-42_1m
_cell_length_a   3.89855200
_cell_length_b   7.70435600
_cell_length_c   7.70435600
_cell_angle_alpha   90.00000000
_cell_angle_beta   90.00000000
_cell_angle_gamma   90.00000000
_symmetry_Int_Tables_number   113
_chemical_formula_structural   WO3
_chemical_formula_sum   'W4 O12'
_cell_volume   231.40674628
_cell_formula_units_Z   4
loop_
 _symmetry_equiv_pos_site_id
 _symmetry_equiv_pos_as_xyz
  1  'x, y, z'
  2  '-x, z, -y'
  3  'x, -y, -z'
  4  '-x, -z, y'
  5  '-x, -y+1/2, z+1/2'
  6  'x, -z+1/2, -y+1/2'
  7  '-x, y+1/2, -z+1/2'
  8  'x, z+1/2, y+1/2'
loop_
 _atom_site_type_symbol
 _atom_site_label
 _atom_site_symmetry_multiplicity
 _atom_site_fract_x
 _atom_site_fract_y
 _atom_site_fract_z
 _atom_site_occupancy
  W  W0  4  0.03588200  0.25983100  0.75983100  1.0
  O  O1  8  0.00113400  0.25016600  0.00420000  1.0
  O  O2  4  0.49226000  0.24455900  0.25544100  1.0
