# generated using pymatgen
data_WO3
_symmetry_space_group_name_H-M   P2_1/m
_cell_length_a   3.88025707
_cell_length_b   3.89419599
_cell_length_c   7.67593300
_cell_angle_alpha   90.00000000
_cell_angle_beta   90.00000000
_cell_angle_gamma   89.91663761
_symmetry_Int_Tables_number   11
_chemical_formula_structural   WO3
_chemical_formula_sum   'W2 O6'
_cell_volume   115.98692100
_cell_formula_units_Z   2
loop_
 _symmetry_equiv_pos_site_id
 _symmetry_equiv_pos_as_xyz
  1  'x, y, z'
  2  '-x, -y, -z'
  3  '-x, -y, z+1/2'
  4  'x, y, -z+1/2'
loop_
 _atom_site_type_symbol
 _atom_site_label
 _atom_site_symmetry_multiplicity
 _atom_site_fract_x
 _atom_site_fract_y
 _atom_site_fract_z
 _atom_site_occupancy
  W  W0  2  0.03116100  0.04190300  0.25000000  1.0
  O  O1  2  0.00000000  0.00000000  0.00000000  1.0
  O  O2  2  0.00483350  0.51457200  0.25000000  1.0
  O  O3  2  0.49132550  0.98423400  0.75000000  1.0
