# generated using pymatgen
data_W5.33333333O16
_symmetry_space_group_name_H-M   P6_3mc
_cell_length_a   6.22545600
_cell_length_b   6.22545596
_cell_length_c   10.00359900
_cell_angle_alpha   90.00000000
_cell_angle_beta   90.00000000
_cell_angle_gamma   120.00000021
_symmetry_Int_Tables_number   186
_chemical_formula_structural   W5.33333333O16
_chemical_formula_sum   'W5.33333333 O16'
_cell_volume   335.76021818
_cell_formula_units_Z   1
loop_
 _symmetry_equiv_pos_site_id
 _symmetry_equiv_pos_as_xyz
  1  'x, y, z'
  2  'x-y, x, z+1/2'
  3  '-y, x-y, z'
  4  '-x, -y, z+1/2'
  5  '-x+y, -x, z'
  6  'y, -x+y, z+1/2'
  7  'y, x, z+1/2'
  8  'x, x-y, z'
  9  'x-y, -y, z+1/2'
  10  '-y, -x, z'
  11  '-x, -x+y, z+1/2'
  12  '-x+y, y, z'
loop_
 _atom_site_type_symbol
 _atom_site_label
 _atom_site_symmetry_multiplicity
 _atom_site_fract_x
 _atom_site_fract_y
 _atom_site_fract_z
 _atom_site_occupancy
  W  W0  6  0.16800300  0.33600600  0.25095300  0.8888888888833333
  O  O1  6  0.04021800  0.52010900  0.14957100  1.0
  O  O2  6  0.14663900  0.29327800  0.84692000  1.0
  O  O3  2  0.00000000  0.00000000  0.14171900  1.0
  O  O4  2  0.33333333  0.66666667  0.36080200  1.0
