# generated using pymatgen
data_WO3
_symmetry_space_group_name_H-M   P2_1/c
_cell_length_a   5.35897700
_cell_length_b   5.41479800
_cell_length_c   7.72494136
_cell_angle_alpha   90.91421936
_cell_angle_beta   90.00000000
_cell_angle_gamma   90.00000000
_symmetry_Int_Tables_number   14
_chemical_formula_structural   WO3
_chemical_formula_sum   'W4 O12'
_cell_volume   224.13209814
_cell_formula_units_Z   4
loop_
 _symmetry_equiv_pos_site_id
 _symmetry_equiv_pos_as_xyz
  1  'x, y, z'
  2  '-x, -y, -z'
  3  'x+1/2, -y, -z+1/2'
  4  '-x+1/2, y, z+1/2'
loop_
 _atom_site_type_symbol
 _atom_site_label
 _atom_site_symmetry_multiplicity
 _atom_site_fract_x
 _atom_site_fract_y
 _atom_site_fract_z
 _atom_site_occupancy
  W  W0  4  0.24398900  0.74881200  0.23031300  1.0
  O  O1  4  0.02812800  0.47016600  0.22336900  1.0
  O  O2  4  0.02831700  0.02693200  0.77671200  1.0
  O  O3  4  0.19653700  0.74943500  0.49554700  1.0
