# generated using pymatgen
data_WO3
_symmetry_space_group_name_H-M   P1
_cell_length_a   11.51422818
_cell_length_b   12.05313869
_cell_length_c   12.57741389
_cell_angle_alpha   83.03795727
_cell_angle_beta   80.94909323
_cell_angle_gamma   86.14895045
_symmetry_Int_Tables_number   1
_chemical_formula_structural   WO3
_chemical_formula_sum   'W25 O75'
_cell_volume   1709.02168047
_cell_formula_units_Z   25
loop_
 _symmetry_equiv_pos_site_id
 _symmetry_equiv_pos_as_xyz
  1  'x, y, z'
loop_
 _atom_site_type_symbol
 _atom_site_label
 _atom_site_symmetry_multiplicity
 _atom_site_fract_x
 _atom_site_fract_y
 _atom_site_fract_z
 _atom_site_occupancy
  W  W0  1  0.00080900  0.08016940  0.44542692  1.0
  W  W1  1  0.04755720  0.17827390  0.21344948  1.0
  W  W2  1  0.15890710  0.22427928  0.59243808  1.0
  W  W3  1  0.22698108  0.47219432  0.77216301  1.0
  W  W4  1  0.23145336  0.83132421  0.43223083  1.0
  W  W5  1  0.25609584  0.12406536  0.98002627  1.0
  W  W6  1  0.26491948  0.88275722  0.91838309  1.0
  W  W7  1  0.27424483  0.71502584  0.17638526  1.0
  W  W8  1  0.44914572  0.36347644  0.95679154  1.0
  W  W9  1  0.45034361  0.26419973  0.65824825  1.0
  W  W10  1  0.46469001  0.68121343  0.54075043  1.0
  W  W11  1  0.50816696  0.94922728  0.72665662  1.0
  W  W12  1  0.53176529  0.30785187  0.34865366  1.0
  W  W13  1  0.55115997  0.64528066  0.81964437  1.0
  W  W14  1  0.55190416  0.89931117  0.30754217  1.0
  W  W15  1  0.62095737  0.14060023  0.09415547  1.0
  W  W16  1  0.68529739  0.70270594  0.03944243  1.0
  W  W17  1  0.69730072  0.44552115  0.50311873  1.0
  W  W18  1  0.78186776  0.05867537  0.81160824  1.0
  W  W19  1  0.79431105  0.68811565  0.29071731  1.0
  W  W20  1  0.88474074  0.34861675  0.10434588  1.0
  W  W21  1  0.90665493  0.78316105  0.53705027  1.0
  W  W22  1  0.91772301  0.50423275  0.89889651  1.0
  W  W23  1  0.96312359  0.81234786  0.86020454  1.0
  W  W24  1  0.99081635  0.47701001  0.60078427  1.0
  O  O25  1  0.03131214  0.31212581  0.64893493  1.0
  O  O26  1  0.03814891  0.47295362  0.46267879  1.0
  O  O27  1  0.08571716  0.44696500  0.86386670  1.0
  O  O28  1  0.09177152  0.09603014  0.56242952  1.0
  O  O29  1  0.09816899  0.77820875  0.51823783  1.0
  O  O30  1  0.10593597  0.18312591  0.34857228  1.0
  O  O31  1  0.11834533  0.83714922  0.87824978  1.0
  O  O32  1  0.13151544  0.50060182  0.64805717  1.0
  O  O33  1  0.15172392  0.00878150  0.97364597  1.0
  O  O34  1  0.17415082  0.97129796  0.40854870  1.0
  O  O35  1  0.19197115  0.13885980  0.13358606  1.0
  O  O36  1  0.20205082  0.21670878  0.87993604  1.0
  O  O37  1  0.20547783  0.60248719  0.14366258  1.0
  O  O38  1  0.20566593  0.74962898  0.31997951  1.0
  O  O39  1  0.21532175  0.29552596  0.47052297  1.0
  O  O40  1  0.24911680  0.84365528  0.07978961  1.0
  O  O41  1  0.25133546  0.61312217  0.76561753  1.0
  O  O42  1  0.28482864  0.19540853  0.66707458  1.0
  O  O43  1  0.31435779  0.41216442  0.88271195  1.0
  O  O44  1  0.33494273  0.79366254  0.53945568  1.0
  O  O45  1  0.34040388  0.93138008  0.76954682  1.0
  O  O46  1  0.34094948  0.74946356  0.91587163  1.0
  O  O47  1  0.34273291  0.39448853  0.66800457  1.0
  O  O48  1  0.37159806  0.00734737  0.93800663  1.0
  O  O49  1  0.37493694  0.21951497  0.00426330  1.0
  O  O50  1  0.38766400  0.57928320  0.50001817  1.0
  O  O51  1  0.38866821  0.87674279  0.33425621  1.0
  O  O52  1  0.40227246  0.43172639  0.06973642  1.0
  O  O53  1  0.42406597  0.67924611  0.17827004  1.0
  O  O54  1  0.45049202  0.42865526  0.31292215  1.0
  O  O55  1  0.46001177  0.25330230  0.48452307  1.0
  O  O56  1  0.47043780  0.65966345  0.69265269  1.0
  O  O57  1  0.47727403  0.26994360  0.79351171  1.0
  O  O58  1  0.49072588  0.10811094  0.66525288  1.0
  O  O59  1  0.52520605  0.48776940  0.86163110  1.0
  O  O60  1  0.53770509  0.89560852  0.60215097  1.0
  O  O61  1  0.53838047  0.21549545  0.24130937  1.0
  O  O62  1  0.54119133  0.80871374  0.80783832  1.0
  O  O63  1  0.55211750  0.00871431  0.18620845  1.0
  O  O64  1  0.55349798  0.75083707  0.41632280  1.0
  O  O65  1  0.56727108  0.65267604  0.97047355  1.0
  O  O66  1  0.57829147  0.98714678  0.39825870  1.0
  O  O67  1  0.58458220  0.28001530  0.01063081  1.0
  O  O68  1  0.59200110  0.34635804  0.59863773  1.0
  O  O69  1  0.60509355  0.82225607  0.08015620  1.0
  O  O70  1  0.61089946  0.56852547  0.54526839  1.0
  O  O71  1  0.63766353  0.00164270  0.78306445  1.0
  O  O72  1  0.66521071  0.06210776  0.98046179  1.0
  O  O73  1  0.67173030  0.35498807  0.39244982  1.0
  O  O74  1  0.69410329  0.63046840  0.75705862  1.0
  O  O75  1  0.71004314  0.82880464  0.26423719  1.0
  O  O76  1  0.71430514  0.63610555  0.17748093  1.0
  O  O77  1  0.74393276  0.38111101  0.17192203  1.0
  O  O78  1  0.75706988  0.15839332  0.13227089  1.0
  O  O79  1  0.77247878  0.81038612  0.61475427  1.0
  O  O80  1  0.77346148  0.54753990  0.37790078  1.0
  O  O81  1  0.77768434  0.57121176  0.95629247  1.0
  O  O82  1  0.78330378  0.20161258  0.82148941  1.0
  O  O83  1  0.81529879  0.77823730  0.96187899  1.0
  O  O84  1  0.82464708  0.42360055  0.57212538  1.0
  O  O85  1  0.85768533  0.75013331  0.41036009  1.0
  O  O86  1  0.85913127  0.04971688  0.68072932  1.0
  O  O87  1  0.86548902  0.35361894  0.95536003  1.0
  O  O88  1  0.88272540  0.17359963  0.47519799  1.0
  O  O89  1  0.89956166  0.48668228  0.76038331  1.0
  O  O90  1  0.89988544  0.96256587  0.88167791  1.0
  O  O91  1  0.92949790  0.69100145  0.20911354  1.0
  O  O92  1  0.93349770  0.63055753  0.58786799  1.0
  O  O93  1  0.93976990  0.93784089  0.48667268  1.0
  O  O94  1  0.95792803  0.48160813  0.05965436  1.0
  O  O95  1  0.95811388  0.82154497  0.71989819  1.0
  O  O96  1  0.96440068  0.06029163  0.29194097  1.0
  O  O97  1  0.97424874  0.19884685  0.08792913  1.0
  O  O98  1  0.97622790  0.32216866  0.23109825  1.0
  O  O99  1  0.98618387  0.65267135  0.87911772  1.0
