# generated using pymatgen
data_WO3
_symmetry_space_group_name_H-M   P1
_cell_length_a   11.66963241
_cell_length_b   11.99931824
_cell_length_c   12.09348762
_cell_angle_alpha   78.74433900
_cell_angle_beta   86.39411669
_cell_angle_gamma   91.47706929
_symmetry_Int_Tables_number   1
_chemical_formula_structural   WO3
_chemical_formula_sum   'W25 O75'
_cell_volume   1656.31008458
_cell_formula_units_Z   25
loop_
 _symmetry_equiv_pos_site_id
 _symmetry_equiv_pos_as_xyz
  1  'x, y, z'
loop_
 _atom_site_type_symbol
 _atom_site_label
 _atom_site_symmetry_multiplicity
 _atom_site_fract_x
 _atom_site_fract_y
 _atom_site_fract_z
 _atom_site_occupancy
  W  W0  1  0.00924987  0.45534022  0.00143456  1.0
  W  W1  1  0.04966776  0.31286362  0.45178521  1.0
  W  W2  1  0.07984066  0.68609969  0.56368045  1.0
  W  W3  1  0.08359025  0.00156046  0.55251606  1.0
  W  W4  1  0.18446445  0.73309181  0.94159810  1.0
  W  W5  1  0.22867816  0.06612573  0.24403351  1.0
  W  W6  1  0.22916690  0.49911664  0.49706194  1.0
  W  W7  1  0.28291972  0.00733263  0.78531547  1.0
  W  W8  1  0.39630292  0.11198599  0.96453911  1.0
  W  W9  1  0.44193492  0.62235375  0.28375398  1.0
  W  W10  1  0.48503420  0.18108473  0.37425459  1.0
  W  W11  1  0.50062341  0.35859506  0.59434681  1.0
  W  W12  1  0.50454332  0.71106342  0.98704723  1.0
  W  W13  1  0.54615252  0.92992500  0.61147784  1.0
  W  W14  1  0.55584108  0.91604914  0.17734237  1.0
  W  W15  1  0.57542141  0.32064113  0.88808274  1.0
  W  W16  1  0.68182449  0.55572289  0.46819804  1.0
  W  W17  1  0.76817258  0.75638930  0.79920749  1.0
  W  W18  1  0.81380631  0.22090469  0.80274968  1.0
  W  W19  1  0.82261191  0.92669648  0.16004664  1.0
  W  W20  1  0.82383729  0.84653653  0.48115135  1.0
  W  W21  1  0.84530314  0.48776250  0.71922527  1.0
  W  W22  1  0.86657355  0.61517320  0.19350795  1.0
  W  W23  1  0.94500114  0.19781074  0.21893079  1.0
  W  W24  1  0.97430696  0.95487006  0.86399474  1.0
  O  O25  1  0.04201582  0.80875638  0.90157269  1.0
  O  O26  1  0.05060361  0.16192003  0.53570623  1.0
  O  O27  1  0.05414522  0.27321867  0.30275926  1.0
  O  O28  1  0.07215325  0.08795951  0.23139415  1.0
  O  O29  1  0.10153358  0.39113339  0.56644174  1.0
  O  O30  1  0.11466813  0.59076272  0.93999716  1.0
  O  O31  1  0.11978962  0.62559468  0.43563007  1.0
  O  O32  1  0.11990369  0.83319573  0.58379212  1.0
  O  O33  1  0.12172131  0.36702005  0.98576988  1.0
  O  O34  1  0.12527995  0.01536714  0.86285721  1.0
  O  O35  1  0.15448429  0.45118593  0.35641152  1.0
  O  O36  1  0.17581673  0.02950703  0.42029022  1.0
  O  O37  1  0.17988072  0.76191349  0.07617864  1.0
  O  O38  1  0.20725889  0.60382341  0.61660217  1.0
  O  O39  1  0.21100441  0.03137473  0.64695049  1.0
  O  O40  1  0.24316439  0.36985526  0.39867601  1.0
  O  O41  1  0.24842676  0.84360101  0.81445420  1.0
  O  O42  1  0.25264526  0.92357966  0.25004259  1.0
  O  O43  1  0.27112649  0.12575881  0.09094659  1.0
  O  O44  1  0.31015046  0.15290346  0.82294344  1.0
  O  O45  1  0.34225678  0.96648985  0.93956434  1.0
  O  O46  1  0.34749914  0.53833852  0.22602900  1.0
  O  O47  1  0.35072046  0.41777064  0.57884604  1.0
  O  O48  1  0.35364533  0.68684706  0.94885420  1.0
  O  O49  1  0.35418462  0.14475275  0.30117485  1.0
  O  O50  1  0.35811146  0.61535926  0.41912067  1.0
  O  O51  1  0.42673236  0.98544348  0.70903145  1.0
  O  O52  1  0.43302365  0.27257219  0.97603389  1.0
  O  O53  1  0.44970462  0.78180818  0.22893700  1.0
  O  O54  1  0.45964797  0.30600429  0.43538375  1.0
  O  O55  1  0.46669241  0.02952618  0.09589084  1.0
  O  O56  1  0.46700802  0.82225882  0.57214100  1.0
  O  O57  1  0.49465607  0.21326122  0.64517494  1.0
  O  O58  1  0.50953353  0.38274640  0.74978629  1.0
  O  O59  1  0.52291372  0.07055477  0.49476989  1.0
  O  O60  1  0.52920763  0.62205312  0.11820628  1.0
  O  O61  1  0.53018943  0.13405209  0.87795791  1.0
  O  O62  1  0.53143719  0.84926223  0.01483511  1.0
  O  O63  1  0.54291703  0.96242717  0.30584810  1.0
  O  O64  1  0.56046896  0.55508692  0.56750900  1.0
  O  O65  1  0.57936125  0.56278692  0.34236060  1.0
  O  O66  1  0.59756641  0.43520071  0.95313331  1.0
  O  O67  1  0.59809437  0.21842214  0.27286634  1.0
  O  O68  1  0.62456623  0.85962074  0.73029165  1.0
  O  O69  1  0.62626296  0.68897192  0.89208303  1.0
  O  O70  1  0.64631579  0.38428570  0.51224968  1.0
  O  O71  1  0.68829038  0.81649955  0.19205725  1.0
  O  O72  1  0.69090346  0.92346683  0.51460793  1.0
  O  O73  1  0.69312798  0.01207444  0.10767926  1.0
  O  O74  1  0.70933903  0.22663808  0.93295320  1.0
  O  O75  1  0.72230000  0.37209074  0.76896404  1.0
  O  O76  1  0.72679529  0.70796117  0.45775998  1.0
  O  O77  1  0.74735410  0.15870338  0.70469395  1.0
  O  O78  1  0.74771589  0.59131585  0.75539004  1.0
  O  O79  1  0.75795514  0.61102076  0.10354404  1.0
  O  O80  1  0.80677909  0.54585040  0.33548982  1.0
  O  O81  1  0.80921064  0.51061902  0.56930151  1.0
  O  O82  1  0.81812658  0.89204245  0.84349895  1.0
  O  O83  1  0.82918895  0.79260098  0.65128420  1.0
  O  O84  1  0.83582867  0.18251721  0.32434049  1.0
  O  O85  1  0.83599892  0.91351614  0.31479221  1.0
  O  O86  1  0.87146250  0.68227495  0.87966855  1.0
  O  O87  1  0.88692152  0.08479060  0.14413114  1.0
  O  O88  1  0.90173497  0.76552638  0.19184114  1.0
  O  O89  1  0.90736621  0.34792882  0.46040046  1.0
  O  O90  1  0.91281718  0.92948892  0.02446664  1.0
  O  O91  1  0.91452519  0.10907666  0.86184211  1.0
  O  O92  1  0.91785159  0.46137723  0.88255620  1.0
  O  O93  1  0.92122991  0.33105246  0.10937640  1.0
  O  O94  1  0.92187742  0.33517815  0.72599357  1.0
  O  O95  1  0.94728718  0.96499911  0.49345919  1.0
  O  O96  1  0.95393373  0.74839868  0.47601013  1.0
  O  O97  1  0.97969299  0.59234461  0.67430282  1.0
  O  O98  1  0.98619786  0.53706387  0.13197972  1.0
  O  O99  1  0.99567572  0.97243282  0.70609759  1.0
