# generated using pymatgen
data_WO3
_symmetry_space_group_name_H-M   P2_12_12_1
_cell_length_a   5.34552100
_cell_length_b   5.41140600
_cell_length_c   7.71302800
_cell_angle_alpha   90.00000000
_cell_angle_beta   90.00000000
_cell_angle_gamma   90.00000000
_symmetry_Int_Tables_number   19
_chemical_formula_structural   WO3
_chemical_formula_sum   'W4 O12'
_cell_volume   223.11309812
_cell_formula_units_Z   4
loop_
 _symmetry_equiv_pos_site_id
 _symmetry_equiv_pos_as_xyz
  1  'x, y, z'
  2  '-x+1/2, -y, z+1/2'
  3  'x+1/2, -y+1/2, -z'
  4  '-x, y+1/2, -z+1/2'
loop_
 _atom_site_type_symbol
 _atom_site_label
 _atom_site_symmetry_multiplicity
 _atom_site_fract_x
 _atom_site_fract_y
 _atom_site_fract_z
 _atom_site_occupancy
  W  W0  4  0.24881400  0.00012700  0.48051400  1.0
  O  O1  4  0.02585700  0.72680800  0.52885800  1.0
  O  O2  4  0.03110600  0.72398500  0.97011400  1.0
  O  O3  4  0.19189800  0.99691100  0.24555600  1.0
