# generated using pymatgen
data_WO3
_symmetry_space_group_name_H-M   Pm-3m
_cell_length_a   3.85969000
_cell_length_b   3.86012600
_cell_length_c   3.86677200
_cell_angle_alpha   90.00000000
_cell_angle_beta   90.00000000
_cell_angle_gamma   90.00000000
_symmetry_Int_Tables_number   221
_chemical_formula_structural   WO3
_chemical_formula_sum   'W1 O3'
_cell_volume   57.61060960
_cell_formula_units_Z   1
loop_
 _symmetry_equiv_pos_site_id
 _symmetry_equiv_pos_as_xyz
  1  'x, y, z'
  2  '-x, -y, -z'
  3  '-y+1/2, x+1/2, z'
  4  'y+1/2, -x+1/2, -z'
  5  '-x, -y, z'
  6  'x, y, -z'
  7  'y+1/2, -x+1/2, z'
  8  '-y+1/2, x+1/2, -z'
  9  'x, -y, -z'
  10  '-x, y, z'
  11  '-y+1/2, -x+1/2, -z'
  12  'y+1/2, x+1/2, z'
  13  '-x, y, -z'
  14  'x, -y, z'
  15  'y+1/2, x+1/2, -z'
  16  '-y+1/2, -x+1/2, z'
  17  'z, x+1/2, y+1/2'
  18  '-z, -x+1/2, -y+1/2'
  19  'z, -y, x'
  20  '-z, y, -x'
  21  'z, -x+1/2, -y+1/2'
  22  '-z, x+1/2, y+1/2'
  23  'z, y, -x'
  24  '-z, -y, x'
  25  '-z, x+1/2, -y+1/2'
  26  'z, -x+1/2, y+1/2'
  27  '-z, -y, -x'
  28  'z, y, x'
  29  '-z, -x+1/2, y+1/2'
  30  'z, x+1/2, -y+1/2'
  31  '-z, y, x'
  32  'z, -y, -x'
  33  'y+1/2, z+1/2, x'
  34  '-y+1/2, -z+1/2, -x'
  35  'x, z+1/2, -y+1/2'
  36  '-x, -z+1/2, y+1/2'
  37  '-y+1/2, z+1/2, -x'
  38  'y+1/2, -z+1/2, x'
  39  '-x, z+1/2, y+1/2'
  40  'x, -z+1/2, -y+1/2'
  41  '-y+1/2, -z+1/2, x'
  42  'y+1/2, z+1/2, -x'
  43  '-x, -z+1/2, -y+1/2'
  44  'x, z+1/2, y+1/2'
  45  'y+1/2, -z+1/2, -x'
  46  '-y+1/2, z+1/2, x'
  47  'x, -z+1/2, y+1/2'
  48  '-x, z+1/2, -y+1/2'
loop_
 _atom_site_type_symbol
 _atom_site_label
 _atom_site_symmetry_multiplicity
 _atom_site_fract_x
 _atom_site_fract_y
 _atom_site_fract_z
 _atom_site_occupancy
  W  W0  1  0.00000000  0.50000000  0.00000000  1.0
  O  O1  3  0.00000000  0.00000000  0.00000000  1.0
