# generated using pymatgen
data_WO3
_symmetry_space_group_name_H-M   P6_3cm
_cell_length_a   7.50734200
_cell_length_b   7.50734123
_cell_length_c   7.72750400
_cell_angle_alpha   90.00000000
_cell_angle_beta   90.00000000
_cell_angle_gamma   120.00000339
_symmetry_Int_Tables_number   185
_chemical_formula_structural   WO3
_chemical_formula_sum   'W6 O18'
_cell_volume   377.17440370
_cell_formula_units_Z   6
loop_
 _symmetry_equiv_pos_site_id
 _symmetry_equiv_pos_as_xyz
  1  'x, y, z'
  2  'x-y, x, z+1/2'
  3  '-y, x-y, z'
  4  '-x, -y, z+1/2'
  5  '-x+y, -x, z'
  6  'y, -x+y, z+1/2'
  7  'y, x, z'
  8  'x, x-y, z+1/2'
  9  'x-y, -y, z'
  10  '-y, -x, z+1/2'
  11  '-x, -x+y, z'
  12  '-x+y, y, z+1/2'
loop_
 _atom_site_type_symbol
 _atom_site_label
 _atom_site_symmetry_multiplicity
 _atom_site_fract_x
 _atom_site_fract_y
 _atom_site_fract_z
 _atom_site_occupancy
  W  W0  6  0.00000000  0.48315600  0.73896800  1.0
  O  O1  12  0.20984500  0.42598100  0.24897400  1.0
  O  O2  6  0.00000000  0.49861700  0.49712000  1.0
