# generated using pymatgen
data_WO3
_symmetry_space_group_name_H-M   P1
_cell_length_a   11.70623733
_cell_length_b   12.39882450
_cell_length_c   12.45246301
_cell_angle_alpha   95.87255313
_cell_angle_beta   90.24832246
_cell_angle_gamma   94.53135053
_symmetry_Int_Tables_number   1
_chemical_formula_structural   WO3
_chemical_formula_sum   'W25 O75'
_cell_volume   1792.14944563
_cell_formula_units_Z   25
loop_
 _symmetry_equiv_pos_site_id
 _symmetry_equiv_pos_as_xyz
  1  'x, y, z'
loop_
 _atom_site_type_symbol
 _atom_site_label
 _atom_site_symmetry_multiplicity
 _atom_site_fract_x
 _atom_site_fract_y
 _atom_site_fract_z
 _atom_site_occupancy
  W  W0  1  0.03962558  0.10361505  0.00351979  1.0
  W  W1  1  0.08767186  0.53376855  0.61999519  1.0
  W  W2  1  0.08835149  0.81467907  0.04042937  1.0
  W  W3  1  0.14488727  0.88390291  0.39208991  1.0
  W  W4  1  0.17060938  0.60189891  0.34217095  1.0
  W  W5  1  0.19916361  0.53510787  0.04912601  1.0
  W  W6  1  0.20812734  0.91184672  0.63452203  1.0
  W  W7  1  0.25725922  0.34272780  0.46318779  1.0
  W  W8  1  0.26879733  0.20967010  0.72266980  1.0
  W  W9  1  0.40626901  0.84182666  0.02645109  1.0
  W  W10  1  0.40923979  0.61006217  0.83363574  1.0
  W  W11  1  0.45755289  0.74509313  0.58817681  1.0
  W  W12  1  0.46055844  0.24601086  0.89572908  1.0
  W  W13  1  0.47823101  0.44736647  0.12408484  1.0
  W  W14  1  0.52280478  0.21841083  0.42243164  1.0
  W  W15  1  0.54093451  0.05335327  0.22271681  1.0
  W  W16  1  0.66563611  0.91485585  0.84097714  1.0
  W  W17  1  0.68472064  0.71992999  0.42456204  1.0
  W  W18  1  0.75889839  0.67543904  0.66422646  1.0
  W  W19  1  0.75904008  0.43318519  0.43934304  1.0
  W  W20  1  0.77600321  0.19796484  0.88966103  1.0
  W  W21  1  0.86388259  0.49779148  0.83613893  1.0
  W  W22  1  0.86754791  0.27041756  0.19670952  1.0
  W  W23  1  0.88445122  0.02494961  0.32240239  1.0
  W  W24  1  0.98591458  0.88482350  0.77907688  1.0
  O  O25  1  0.00019117  0.78676561  0.14695372  1.0
  O  O26  1  0.00646357  0.80220362  0.90740293  1.0
  O  O27  1  0.02822683  0.93418558  0.64789152  1.0
  O  O28  1  0.03085175  0.96233556  0.33523830  1.0
  O  O29  1  0.04725539  0.00883154  0.86312874  1.0
  O  O30  1  0.06877358  0.97034171  0.05925851  1.0
  O  O31  1  0.07677892  0.58761786  0.48863833  1.0
  O  O32  1  0.09288560  0.73214486  0.33968825  1.0
  O  O33  1  0.10585256  0.42688345  0.99745561  1.0
  O  O34  1  0.12276570  0.22255671  0.74061738  1.0
  O  O35  1  0.13221856  0.55435675  0.20134871  1.0
  O  O36  1  0.13436603  0.66302167  0.02023943  1.0
  O  O37  1  0.15639953  0.41008796  0.58189239  1.0
  O  O38  1  0.15712133  0.84021938  0.75160669  1.0
  O  O39  1  0.16537339  0.80058842  0.52050147  1.0
  O  O40  1  0.16792565  0.18217687  0.00345995  1.0
  O  O41  1  0.18063963  0.23437060  0.39114357  1.0
  O  O42  1  0.18711669  0.99540093  0.50747912  1.0
  O  O43  1  0.19110006  0.61641306  0.69541831  1.0
  O  O44  1  0.21906875  0.46111814  0.38718824  1.0
  O  O45  1  0.24798771  0.85568375  0.07047559  1.0
  O  O46  1  0.25049330  0.05107071  0.70789387  1.0
  O  O47  1  0.26583397  0.89802730  0.31450683  1.0
  O  O48  1  0.29664472  0.26854048  0.59318222  1.0
  O  O49  1  0.30080444  0.54572892  0.93346542  1.0
  O  O50  1  0.30800347  0.66003229  0.33196070  1.0
  O  O51  1  0.31540078  0.30573547  0.84720788  1.0
  O  O52  1  0.32450842  0.48843666  0.13370489  1.0
  O  O53  1  0.34932883  0.75634593  0.90185940  1.0
  O  O54  1  0.36331915  0.86626603  0.61275618  1.0
  O  O55  1  0.36422941  0.63931128  0.53276303  1.0
  O  O56  1  0.39875143  0.50071605  0.73021552  1.0
  O  O57  1  0.40899698  0.33643340  0.42494527  1.0
  O  O58  1  0.41281148  0.15731238  0.98757675  1.0
  O  O59  1  0.42833283  0.13793492  0.31123104  1.0
  O  O60  1  0.43505813  0.16779528  0.76054171  1.0
  O  O61  1  0.44266265  0.98165631  0.10625948  1.0
  O  O62  1  0.44678033  0.74625998  0.10738960  1.0
  O  O63  1  0.45373475  0.72015714  0.73134428  1.0
  O  O64  1  0.48985447  0.38992006  0.97916011  1.0
  O  O65  1  0.49355891  0.15101137  0.53546084  1.0
  O  O66  1  0.50013403  0.34740597  0.21151299  1.0
  O  O67  1  0.54045971  0.60280161  0.89784007  1.0
  O  O68  1  0.54408856  0.78458593  0.45736623  1.0
  O  O69  1  0.55439147  0.87516932  0.93944798  1.0
  O  O70  1  0.58009689  0.93739874  0.27656595  1.0
  O  O71  1  0.58093665  0.55575122  0.15596121  1.0
  O  O72  1  0.59145423  0.95441456  0.73264638  1.0
  O  O73  1  0.60735534  0.66808886  0.59464847  1.0
  O  O74  1  0.62214812  0.24218402  0.89425229  1.0
  O  O75  1  0.63632061  0.34772458  0.48406503  1.0
  O  O76  1  0.64021570  0.15120950  0.35650136  1.0
  O  O77  1  0.65250363  0.11202064  0.14677824  1.0
  O  O78  1  0.69139030  0.76959431  0.77506472  1.0
  O  O79  1  0.69933142  0.56924903  0.39178486  1.0
  O  O80  1  0.71427896  0.05414467  0.91850031  1.0
  O  O81  1  0.74337099  0.77157669  0.31245990  1.0
  O  O82  1  0.74857119  0.56783647  0.77790422  1.0
  O  O83  1  0.77051819  0.36723396  0.29802130  1.0
  O  O84  1  0.78718050  0.55072550  0.57385987  1.0
  O  O85  1  0.78741095  0.17032901  0.75107769  1.0
  O  O86  1  0.79324328  0.76323285  0.53468947  1.0
  O  O87  1  0.79704695  0.27303253  0.06541809  1.0
  O  O88  1  0.80338311  0.98599093  0.43128156  1.0
  O  O89  1  0.82020643  0.36201868  0.86898619  1.0
  O  O90  1  0.82302272  0.95835387  0.20409042  1.0
  O  O91  1  0.83731419  0.92399424  0.80273727  1.0
  O  O92  1  0.87897657  0.17784757  0.31701587  1.0
  O  O93  1  0.88730442  0.39175738  0.49047081  1.0
  O  O94  1  0.90806016  0.73614464  0.70819598  1.0
  O  O95  1  0.91276376  0.57580515  0.95246535  1.0
  O  O96  1  0.93095654  0.17282250  0.92298828  1.0
  O  O97  1  0.96553770  0.15687973  0.12966215  1.0
  O  O98  1  0.97618536  0.49769381  0.72678583  1.0
  O  O99  1  0.97908625  0.37137313  0.20728259  1.0
