# generated using pymatgen
data_WO3
_symmetry_space_group_name_H-M   Pbcn
_cell_length_a   7.60205500
_cell_length_b   7.70010400
_cell_length_c   7.74714300
_cell_angle_alpha   90.00000000
_cell_angle_beta   90.00000000
_cell_angle_gamma   90.00000000
_symmetry_Int_Tables_number   60
_chemical_formula_structural   WO3
_chemical_formula_sum   'W8 O24'
_cell_volume   453.49152027
_cell_formula_units_Z   8
loop_
 _symmetry_equiv_pos_site_id
 _symmetry_equiv_pos_as_xyz
  1  'x, y, z'
  2  '-x, -y, -z'
  3  '-x+1/2, y+1/2, -z+1/2'
  4  'x+1/2, -y+1/2, z+1/2'
  5  'x+1/2, -y, -z+1/2'
  6  '-x+1/2, y, z+1/2'
  7  '-x, -y+1/2, z'
  8  'x, y+1/2, -z'
loop_
 _atom_site_type_symbol
 _atom_site_label
 _atom_site_symmetry_multiplicity
 _atom_site_fract_x
 _atom_site_fract_y
 _atom_site_fract_z
 _atom_site_occupancy
  W  W0  8  0.24903900  0.48234000  0.23368100  1.0
  O  O1  8  0.00038900  0.02892100  0.77465000  1.0
  O  O2  8  0.22073600  0.24238000  0.24708100  1.0
  O  O3  8  0.22478300  0.49031300  0.49621400  1.0
