# generated using pymatgen
data_WO3
_symmetry_space_group_name_H-M   P1
_cell_length_a   11.90182644
_cell_length_b   12.07910996
_cell_length_c   12.65392787
_cell_angle_alpha   84.96808335
_cell_angle_beta   88.47393011
_cell_angle_gamma   91.66191221
_symmetry_Int_Tables_number   1
_chemical_formula_structural   WO3
_chemical_formula_sum   'W25 O75'
_cell_volume   1810.62147135
_cell_formula_units_Z   25
loop_
 _symmetry_equiv_pos_site_id
 _symmetry_equiv_pos_as_xyz
  1  'x, y, z'
loop_
 _atom_site_type_symbol
 _atom_site_label
 _atom_site_symmetry_multiplicity
 _atom_site_fract_x
 _atom_site_fract_y
 _atom_site_fract_z
 _atom_site_occupancy
  W  W0  1  0.01311905  0.90573612  0.45249322  1.0
  W  W1  1  0.03863709  0.31895783  0.21462405  1.0
  W  W2  1  0.07530370  0.01971435  0.85255022  1.0
  W  W3  1  0.13299075  0.33761838  0.85229211  1.0
  W  W4  1  0.16992009  0.54642174  0.35645012  1.0
  W  W5  1  0.23736026  0.86493986  0.96818700  1.0
  W  W6  1  0.25576933  0.44313312  0.61831000  1.0
  W  W7  1  0.25656618  0.01603850  0.61112283  1.0
  W  W8  1  0.26491036  0.78763453  0.32901394  1.0
  W  W9  1  0.29433299  0.70608290  0.73421923  1.0
  W  W10  1  0.44229858  0.23706807  0.13204934  1.0
  W  W11  1  0.45556628  0.96746171  0.13095537  1.0
  W  W12  1  0.45768576  0.10203272  0.39342664  1.0
  W  W13  1  0.52104078  0.36630292  0.53803311  1.0
  W  W14  1  0.55785543  0.53210228  0.78384095  1.0
  W  W15  1  0.57909599  0.99537585  0.64869383  1.0
  W  W16  1  0.72972952  0.64204798  0.00144892  1.0
  W  W17  1  0.73336797  0.36696989  0.16385030  1.0
  W  W18  1  0.77028408  0.86595350  0.09322512  1.0
  W  W19  1  0.77232923  0.75169321  0.63287237  1.0
  W  W20  1  0.78738479  0.21164059  0.52077263  1.0
  W  W21  1  0.79811479  0.74897837  0.34874436  1.0
  W  W22  1  0.83367570  0.36234078  0.77933327  1.0
  W  W23  1  0.86695507  0.15780931  0.03460397  1.0
  W  W24  1  0.88682712  0.51013271  0.50083165  1.0
  O  O25  1  0.03135615  0.51042282  0.45073781  1.0
  O  O26  1  0.08935708  0.86536493  0.89184937  1.0
  O  O27  1  0.09830655  0.47184661  0.25279569  1.0
  O  O28  1  0.11370200  0.40115780  0.61811515  1.0
  O  O29  1  0.12371775  0.95650674  0.54947298  1.0
  O  O30  1  0.13090679  0.18959741  0.83638000  1.0
  O  O31  1  0.13846159  0.35941641  0.98574499  1.0
  O  O32  1  0.14835430  0.68237218  0.41354452  1.0
  O  O33  1  0.15447791  0.88777903  0.35772098  1.0
  O  O34  1  0.16120197  0.64856747  0.77070793  1.0
  O  O35  1  0.17460124  0.26854752  0.20356092  1.0
  O  O36  1  0.19280915  0.78170852  0.08191349  1.0
  O  O37  1  0.20030391  0.01220693  0.97371915  1.0
  O  O38  1  0.20697559  0.00223696  0.75419365  1.0
  O  O39  1  0.23093556  0.15680247  0.59414204  1.0
  O  O40  1  0.25589538  0.46615407  0.44947842  1.0
  O  O41  1  0.25660422  0.41182882  0.77490185  1.0
  O  O42  1  0.27521366  0.63708669  0.26968351  1.0
  O  O43  1  0.28482173  0.82666985  0.64047235  1.0
  O  O44  1  0.29499974  0.59159900  0.61806404  1.0
  O  O45  1  0.30861384  0.78506435  0.85939510  1.0
  O  O46  1  0.32545995  0.04220625  0.44748858  1.0
  O  O47  1  0.34721774  0.87015732  0.21754640  1.0
  O  O48  1  0.34783425  0.09775175  0.11690636  1.0
  O  O49  1  0.35834583  0.33309088  0.06560785  1.0
  O  O50  1  0.36331112  0.78878808  0.42661530  1.0
  O  O51  1  0.36377595  0.33932572  0.59516641  1.0
  O  O52  1  0.38980186  0.90640091  0.01416807  1.0
  O  O53  1  0.41707715  0.01237325  0.64131065  1.0
  O  O54  1  0.41736023  0.22803496  0.27847803  1.0
  O  O55  1  0.44040963  0.63555537  0.76277194  1.0
  O  O56  1  0.48402890  0.23078430  0.46927368  1.0
  O  O57  1  0.48756175  0.43089929  0.86906683  1.0
  O  O58  1  0.48795574  0.02450745  0.27155524  1.0
  O  O59  1  0.51655750  0.11133783  0.05708066  1.0
  O  O60  1  0.52885853  0.46720150  0.43173820  1.0
  O  O61  1  0.53241794  0.46102458  0.65541249  1.0
  O  O62  1  0.55235753  0.01958547  0.47491050  1.0
  O  O63  1  0.57951052  0.00302939  0.78527663  1.0
  O  O64  1  0.58019439  0.31571279  0.12198948  1.0
  O  O65  1  0.58757717  0.89873756  0.12253795  1.0
  O  O66  1  0.62325517  0.61318518  0.89868797  1.0
  O  O67  1  0.65087620  0.86284386  0.63388727  1.0
  O  O68  1  0.66082918  0.31607494  0.56660728  1.0
  O  O69  1  0.67136360  0.63873442  0.68103661  1.0
  O  O70  1  0.68849876  0.10228749  0.60902652  1.0
  O  O71  1  0.69786095  0.37548508  0.29584334  1.0
  O  O72  1  0.69871042  0.50283858  0.08498852  1.0
  O  O73  1  0.70622220  0.43613230  0.80633841  1.0
  O  O74  1  0.71139275  0.76041044  0.46597106  1.0
  O  O75  1  0.72064224  0.80480082  0.96704942  1.0
  O  O76  1  0.74422638  0.70208506  0.14181263  1.0
  O  O77  1  0.75704836  0.16436010  0.39794299  1.0
  O  O78  1  0.76304946  0.21560041  0.13247275  1.0
  O  O79  1  0.76437338  0.86860657  0.24998502  1.0
  O  O80  1  0.77274044  0.02677930  0.05401539  1.0
  O  O81  1  0.79794712  0.24070181  0.72225726  1.0
  O  O82  1  0.81931161  0.58364887  0.38207940  1.0
  O  O83  1  0.83657781  0.77697941  0.74986739  1.0
  O  O84  1  0.83935933  0.26775093  0.92745166  1.0
  O  O85  1  0.84325848  0.36928442  0.47177443  1.0
  O  O86  1  0.86116122  0.61431871  0.95042640  1.0
  O  O87  1  0.87158847  0.64265698  0.57125348  1.0
  O  O88  1  0.87543309  0.44742645  0.65266690  1.0
  O  O89  1  0.89114736  0.39453059  0.15974407  1.0
  O  O90  1  0.89772465  0.86297421  0.55070357  1.0
  O  O91  1  0.91526085  0.85885109  0.07675055  1.0
  O  O92  1  0.91891755  0.16185695  0.55485345  1.0
  O  O93  1  0.95295923  0.78603039  0.36529377  1.0
  O  O94  1  0.96406691  0.02257929  0.38392561  1.0
  O  O95  1  0.96986011  0.07515079  0.95615046  1.0
  O  O96  1  0.97665672  0.01824881  0.75429910  1.0
  O  O97  1  0.98038510  0.20194919  0.11970117  1.0
  O  O98  1  0.99340159  0.38901433  0.81705660  1.0
  O  O99  1  0.99361964  0.26524885  0.34010886  1.0
