# generated using pymatgen
data_W1.66666667O5
_symmetry_space_group_name_H-M   Cmmm
_cell_length_a   3.86830400
_cell_length_b   4.03413000
_cell_length_c   6.76406776
_cell_angle_alpha   107.34970041
_cell_angle_beta   90.00000000
_cell_angle_gamma   90.00000000
_symmetry_Int_Tables_number   65
_chemical_formula_structural   W1.66666667O5
_chemical_formula_sum   'W1.66666667 O5'
_cell_volume   100.75242312
_cell_formula_units_Z   1
loop_
 _symmetry_equiv_pos_site_id
 _symmetry_equiv_pos_as_xyz
  1  'x, y, z'
  2  '-x, -y, -z'
  3  'x, -y, -z'
  4  '-x, y, z'
  5  '-x, y-z, -z'
  6  'x, -y+z, z'
  7  '-x, -y+z, z'
  8  'x, y-z, -z'
loop_
 _atom_site_type_symbol
 _atom_site_label
 _atom_site_symmetry_multiplicity
 _atom_site_fract_x
 _atom_site_fract_y
 _atom_site_fract_z
 _atom_site_occupancy
  W  W0  2  0.50000000  0.15111800  0.30223600  0.83333333335
  O  O1  2  0.00000000  0.15398100  0.30796200  1.0
  O  O2  2  0.50000000  0.31694300  0.63388600  1.0
  O  O3  1  0.50000000  0.00000000  0.00000000  1.0
