# generated using pymatgen
data_WO3
_symmetry_space_group_name_H-M   P1
_cell_length_a   11.53019631
_cell_length_b   12.09075275
_cell_length_c   12.57701309
_cell_angle_alpha   88.90306634
_cell_angle_beta   83.67375996
_cell_angle_gamma   92.41870126
_symmetry_Int_Tables_number   1
_chemical_formula_structural   WO3
_chemical_formula_sum   'W25 O75'
_cell_volume   1740.61645315
_cell_formula_units_Z   25
loop_
 _symmetry_equiv_pos_site_id
 _symmetry_equiv_pos_as_xyz
  1  'x, y, z'
loop_
 _atom_site_type_symbol
 _atom_site_label
 _atom_site_symmetry_multiplicity
 _atom_site_fract_x
 _atom_site_fract_y
 _atom_site_fract_z
 _atom_site_occupancy
  W  W0  1  0.07161491  0.80956573  0.72484661  1.0
  W  W1  1  0.09364560  0.72474330  0.15354176  1.0
  W  W2  1  0.09601944  0.41236188  0.13760978  1.0
  W  W3  1  0.11789075  0.54480984  0.40537298  1.0
  W  W4  1  0.15169213  0.36323831  0.83611206  1.0
  W  W5  1  0.20394228  0.96411016  0.11303895  1.0
  W  W6  1  0.22882860  0.13217786  0.51991492  1.0
  W  W7  1  0.32838733  0.42005038  0.47914438  1.0
  W  W8  1  0.34258674  0.12534201  0.25025822  1.0
  W  W9  1  0.37911788  0.49380565  0.17317190  1.0
  W  W10  1  0.38820536  0.19690379  0.72566349  1.0
  W  W11  1  0.46874456  0.76065975  0.26956308  1.0
  W  W12  1  0.47436285  0.87157108  0.98207004  1.0
  W  W13  1  0.51519141  0.91529453  0.69268275  1.0
  W  W14  1  0.51922319  0.58128352  0.87993741  1.0
  W  W15  1  0.60412818  0.56737626  0.45273704  1.0
  W  W16  1  0.65156882  0.13934494  0.34105370  1.0
  W  W17  1  0.66647102  0.17739242  0.63483505  1.0
  W  W18  1  0.74938720  0.84745071  0.37262252  1.0
  W  W19  1  0.75784291  0.49110735  0.00956367  1.0
  W  W20  1  0.82280950  0.22684040  0.08380131  1.0
  W  W21  1  0.85683764  0.42844849  0.55475474  1.0
  W  W22  1  0.93110353  0.00466421  0.53219201  1.0
  W  W23  1  0.94385682  0.59008426  0.79264347  1.0
  W  W24  1  0.94851446  0.99413504  0.93481340  1.0
  O  O25  1  0.00848577  0.90589954  0.61816608  1.0
  O  O26  1  0.05203142  0.69549657  0.84374496  1.0
  O  O27  1  0.05762226  0.43260396  0.27893292  1.0
  O  O28  1  0.05813516  0.91746042  0.82895273  1.0
  O  O29  1  0.05963562  0.24700126  0.82871745  1.0
  O  O30  1  0.07165176  0.11800790  0.55708759  1.0
  O  O31  1  0.08325257  0.48012149  0.77819447  1.0
  O  O32  1  0.09612023  0.64850097  0.28806765  1.0
  O  O33  1  0.10171097  0.87492851  0.21366382  1.0
  O  O34  1  0.10253446  0.55936481  0.09860615  1.0
  O  O35  1  0.10455851  0.98992836  0.01429533  1.0
  O  O36  1  0.15613998  0.41486331  0.48560455  1.0
  O  O37  1  0.15901204  0.38138893  0.97872887  1.0
  O  O38  1  0.17216891  0.64731480  0.48289097  1.0
  O  O39  1  0.19198035  0.10582051  0.17114917  1.0
  O  O40  1  0.21857096  0.80693381  0.68113765  1.0
  O  O41  1  0.21949627  0.78363954  0.06347435  1.0
  O  O42  1  0.25111702  0.38265322  0.15943673  1.0
  O  O43  1  0.25245647  0.19305794  0.36914791  1.0
  O  O44  1  0.26648644  0.11314412  0.66803789  1.0
  O  O45  1  0.28026931  0.00523570  0.48038899  1.0
  O  O46  1  0.29138963  0.49514639  0.34081397  1.0
  O  O47  1  0.29436400  0.32352573  0.76028160  1.0
  O  O48  1  0.32788831  0.50768097  0.58514961  1.0
  O  O49  1  0.33047142  0.27290076  0.53855447  1.0
  O  O50  1  0.33388513  0.97583126  0.22066629  1.0
  O  O51  1  0.34596428  0.96626718  0.01462151  1.0
  O  O52  1  0.35950051  0.81111975  0.35689019  1.0
  O  O53  1  0.37750747  0.64668956  0.20183250  1.0
  O  O54  1  0.39722128  0.15254157  0.85584897  1.0
  O  O55  1  0.39779090  0.52996606  0.82056467  1.0
  O  O56  1  0.40214595  0.21073980  0.14393005  1.0
  O  O57  1  0.41430213  0.51836036  0.03178458  1.0
  O  O58  1  0.44071347  0.87639050  0.83058680  1.0
  O  O59  1  0.46808213  0.83720792  0.58896896  1.0
  O  O60  1  0.48054554  0.83457994  0.13218417  1.0
  O  O61  1  0.48990894  0.12641048  0.31636683  1.0
  O  O62  1  0.49391951  0.44046006  0.43573125  1.0
  O  O63  1  0.49595108  0.07080506  0.66399843  1.0
  O  O64  1  0.50220618  0.71889184  0.95286305  1.0
  O  O65  1  0.50575368  0.43698485  0.20788208  1.0
  O  O66  1  0.52596826  0.63727655  0.34369504  1.0
  O  O67  1  0.52701616  0.27297772  0.66968269  1.0
  O  O68  1  0.54198961  0.60273405  0.57629327  1.0
  O  O69  1  0.59973361  0.95565353  0.96653393  1.0
  O  O70  1  0.60574139  0.84123172  0.30624121  1.0
  O  O71  1  0.61323304  0.62983065  0.76880410  1.0
  O  O72  1  0.61754323  0.12929955  0.49160440  1.0
  O  O73  1  0.62786525  0.47228433  0.93271098  1.0
  O  O74  1  0.66684937  0.90451367  0.68465840  1.0
  O  O75  1  0.68037649  0.13385905  0.76419731  1.0
  O  O76  1  0.70635241  0.15318071  0.17560565  1.0
  O  O77  1  0.71047625  0.70139293  0.42761345  1.0
  O  O78  1  0.72327735  0.26941352  0.34429020  1.0
  O  O79  1  0.73262803  0.47739689  0.47270978  1.0
  O  O80  1  0.73894868  0.61036535  0.08257033  1.0
  O  O81  1  0.73993702  0.01144639  0.34249923  1.0
  O  O82  1  0.74108211  0.31641668  0.62147988  1.0
  O  O83  1  0.76226410  0.38451211  0.11647972  1.0
  O  O84  1  0.77203117  0.24497049  0.95974182  1.0
  O  O85  1  0.81227950  0.64545880  0.84698532  1.0
  O  O86  1  0.81706534  0.10534811  0.57572767  1.0
  O  O87  1  0.82132624  0.88910960  0.49827413  1.0
  O  O88  1  0.84861197  0.88746996  0.97972257  1.0
  O  O89  1  0.86193606  0.82007980  0.27658120  1.0
  O  O90  1  0.88082319  0.48480849  0.68819734  1.0
  O  O91  1  0.88669146  0.06175288  0.83226299  1.0
  O  O92  1  0.90654842  0.48744308  0.93073082  1.0
  O  O93  1  0.91440936  0.10547864  0.04837489  1.0
  O  O94  1  0.94571053  0.32068695  0.51713394  1.0
  O  O95  1  0.96006102  0.53681824  0.47048692  1.0
  O  O96  1  0.96535111  0.73191078  0.09513393  1.0
  O  O97  1  0.97051477  0.31244790  0.11529820  1.0
  O  O98  1  0.98295433  0.68586351  0.66646984  1.0
  O  O99  1  0.98880006  0.02470776  0.39928538  1.0
