# generated using pymatgen
data_WO3
_symmetry_space_group_name_H-M   P2_1/c
_cell_length_a   3.94353300
_cell_length_b   7.53935980
_cell_length_c   7.78108800
_cell_angle_alpha   90.00000000
_cell_angle_beta   90.00000000
_cell_angle_gamma   90.10137052
_symmetry_Int_Tables_number   14
_chemical_formula_structural   WO3
_chemical_formula_sum   'W4 O12'
_cell_volume   231.34472227
_cell_formula_units_Z   4
loop_
 _symmetry_equiv_pos_site_id
 _symmetry_equiv_pos_as_xyz
  1  'x, y, z'
  2  '-x, -y, -z'
  3  '-x, -y+1/2, z+1/2'
  4  'x, y+1/2, -z+1/2'
loop_
 _atom_site_type_symbol
 _atom_site_label
 _atom_site_symmetry_multiplicity
 _atom_site_fract_x
 _atom_site_fract_y
 _atom_site_fract_z
 _atom_site_occupancy
  W  W0  4  0.05396600  0.24521600  0.78423700  1.0
  O  O1  4  0.00108100  0.24927300  0.01338700  1.0
  O  O2  4  0.00123300  0.49843000  0.74959800  1.0
  O  O3  4  0.49373100  0.25071600  0.26985600  1.0
