# generated using pymatgen
data_WO3
_symmetry_space_group_name_H-M   Pbcm
_cell_length_a   3.89313100
_cell_length_b   7.67573500
_cell_length_c   7.75043400
_cell_angle_alpha   90.00000000
_cell_angle_beta   90.00000000
_cell_angle_gamma   90.00000000
_symmetry_Int_Tables_number   57
_chemical_formula_structural   WO3
_chemical_formula_sum   'W4 O12'
_cell_volume   231.60344361
_cell_formula_units_Z   4
loop_
 _symmetry_equiv_pos_site_id
 _symmetry_equiv_pos_as_xyz
  1  'x, y, z'
  2  '-x, -y, -z'
  3  '-x, y+1/2, -z'
  4  'x, -y+1/2, z'
  5  'x, -y, -z+1/2'
  6  '-x, y, z+1/2'
  7  '-x, -y+1/2, z+1/2'
  8  'x, y+1/2, -z+1/2'
loop_
 _atom_site_type_symbol
 _atom_site_label
 _atom_site_symmetry_multiplicity
 _atom_site_fract_x
 _atom_site_fract_y
 _atom_site_fract_z
 _atom_site_occupancy
  W  W0  4  0.03339700  0.25000000  0.47982900  1.0
  O  O1  4  0.00000000  0.00000000  0.00000000  1.0
  O  O2  4  0.00230100  0.25000000  0.24059200  1.0
  O  O3  4  0.49240800  0.25000000  0.98736400  1.0
