# generated using pymatgen
data_Zn
_symmetry_space_group_name_H-M   P1
_cell_length_a   11.75322960
_cell_length_b   11.75334136
_cell_length_c   11.77519097
_cell_angle_alpha   85.70303635
_cell_angle_beta   85.25606425
_cell_angle_gamma   87.13302335
_symmetry_Int_Tables_number   1
_chemical_formula_structural   Zn
_chemical_formula_sum   Zn100
_cell_volume   1614.92028418
_cell_formula_units_Z   100
loop_
 _symmetry_equiv_pos_site_id
 _symmetry_equiv_pos_as_xyz
  1  'x, y, z'
loop_
 _atom_site_type_symbol
 _atom_site_label
 _atom_site_symmetry_multiplicity
 _atom_site_fract_x
 _atom_site_fract_y
 _atom_site_fract_z
 _atom_site_occupancy
  Zn  Zn0  1  0.00060045  0.51063023  0.51900786  1.0
  Zn  Zn1  1  0.02160271  0.20900075  0.12188353  1.0
  Zn  Zn2  1  0.05323120  0.87018206  0.43464597  1.0
  Zn  Zn3  1  0.06301554  0.29111052  0.49342548  1.0
  Zn  Zn4  1  0.06431354  0.42055636  0.06105157  1.0
  Zn  Zn5  1  0.06462224  0.99598953  0.86306472  1.0
  Zn  Zn6  1  0.07436512  0.04849268  0.28625833  1.0
  Zn  Zn7  1  0.08230475  0.95400560  0.08706887  1.0
  Zn  Zn8  1  0.08611336  0.70994851  0.61448839  1.0
  Zn  Zn9  1  0.09546118  0.43471292  0.83977150  1.0
  Zn  Zn10  1  0.09642618  0.20896073  0.90255947  1.0
  Zn  Zn11  1  0.09761699  0.07058294  0.49898394  1.0
  Zn  Zn12  1  0.12007333  0.62367565  0.96261812  1.0
  Zn  Zn13  1  0.12344705  0.65989217  0.38801918  1.0
  Zn  Zn14  1  0.13165735  0.55492914  0.20477402  1.0
  Zn  Zn15  1  0.15053395  0.92082427  0.66939713  1.0
  Zn  Zn16  1  0.15236014  0.31071271  0.25732158  1.0
  Zn  Zn17  1  0.15584876  0.14833696  0.69429802  1.0
  Zn  Zn18  1  0.19362376  0.81118836  0.86482139  1.0
  Zn  Zn19  1  0.19437500  0.77228241  0.18874562  1.0
  Zn  Zn20  1  0.19898528  0.44575675  0.41354277  1.0
  Zn  Zn21  1  0.21845338  0.37721339  0.63969105  1.0
  Zn  Zn22  1  0.24779176  0.57253864  0.76022693  1.0
  Zn  Zn23  1  0.25153490  0.07595990  0.14001190  1.0
  Zn  Zn24  1  0.25552822  0.27198658  0.03892445  1.0
  Zn  Zn25  1  0.26153629  0.80291332  0.44944070  1.0
  Zn  Zn26  1  0.26642330  0.20683342  0.48812655  1.0
  Zn  Zn27  1  0.28117368  0.49258830  0.02853371  1.0
  Zn  Zn28  1  0.28420504  0.00552513  0.35015832  1.0
  Zn  Zn29  1  0.29527982  0.90196636  0.01797544  1.0
  Zn  Zn30  1  0.30180527  0.12077695  0.86864024  1.0
  Zn  Zn31  1  0.30362663  0.58506087  0.52902844  1.0
  Zn  Zn32  1  0.30810507  0.76250351  0.66414705  1.0
  Zn  Zn33  1  0.32623662  0.36461689  0.84342952  1.0
  Zn  Zn34  1  0.34658094  0.43841027  0.24132357  1.0
  Zn  Zn35  1  0.34768530  0.98678032  0.57225891  1.0
  Zn  Zn36  1  0.37345734  0.66806563  0.91870004  1.0
  Zn  Zn37  1  0.38375333  0.64115451  0.14202177  1.0
  Zn  Zn38  1  0.39491517  0.21894339  0.20553567  1.0
  Zn  Zn39  1  0.40180643  0.81436470  0.26473644  1.0
  Zn  Zn40  1  0.40399186  0.87786306  0.80833892  1.0
  Zn  Zn41  1  0.40730154  0.22141220  0.65029265  1.0
  Zn  Zn42  1  0.42453746  0.36480909  0.44902580  1.0
  Zn  Zn43  1  0.43798139  0.44941433  0.65980655  1.0
  Zn  Zn44  1  0.45269850  0.12588852  0.40378082  1.0
  Zn  Zn45  1  0.46057123  0.59734953  0.34020386  1.0
  Zn  Zn46  1  0.46649009  0.78906737  0.49781102  1.0
  Zn  Zn47  1  0.46960651  0.37364000  0.03587429  1.0
  Zn  Zn48  1  0.47872741  0.00298376  0.18550730  1.0
  Zn  Zn49  1  0.47963499  0.01841023  0.94604304  1.0
  Zn  Zn50  1  0.50454302  0.79984979  0.02959103  1.0
  Zn  Zn51  1  0.50872575  0.68120388  0.73263526  1.0
  Zn  Zn52  1  0.51271458  0.24091195  0.84730290  1.0
  Zn  Zn53  1  0.51850159  0.02986234  0.68511198  1.0
  Zn  Zn54  1  0.54157733  0.48225031  0.83891437  1.0
  Zn  Zn55  1  0.55825173  0.37434419  0.24452556  1.0
  Zn  Zn56  1  0.55993744  0.58745442  0.53164446  1.0
  Zn  Zn57  1  0.58087150  0.17629680  0.05494018  1.0
  Zn  Zn58  1  0.59885673  0.95575799  0.44787428  1.0
  Zn  Zn59  1  0.59964193  0.58284401  0.03798841  1.0
  Zn  Zn60  1  0.62825064  0.38143907  0.53976464  1.0
  Zn  Zn61  1  0.63137769  0.86246157  0.80224600  1.0
  Zn  Zn62  1  0.63843650  0.12620263  0.26285795  1.0
  Zn  Zn63  1  0.65094869  0.17278455  0.47020539  1.0
  Zn  Zn64  1  0.65952117  0.72982157  0.37344939  1.0
  Zn  Zn65  1  0.66022093  0.20357149  0.67740268  1.0
  Zn  Zn66  1  0.66977638  0.94818686  0.03808807  1.0
  Zn  Zn67  1  0.67188945  0.76886872  0.59058985  1.0
  Zn  Zn68  1  0.67838223  0.74141336  0.15398000  1.0
  Zn  Zn69  1  0.68685094  0.54420216  0.26507540  1.0
  Zn  Zn70  1  0.69122165  0.39089710  0.97582069  1.0
  Zn  Zn71  1  0.69173783  0.10261347  0.86768236  1.0
  Zn  Zn72  1  0.71998268  0.60292071  0.77001427  1.0
  Zn  Zn73  1  0.72271387  0.91264896  0.26018939  1.0
  Zn  Zn74  1  0.73193882  0.99187234  0.61506955  1.0
  Zn  Zn75  1  0.74858948  0.33357897  0.33333333  1.0
  Zn  Zn76  1  0.75275649  0.38247567  0.74711622  1.0
  Zn  Zn77  1  0.75841503  0.73364944  0.93979403  1.0
  Zn  Zn78  1  0.77689444  0.24185604  0.12101163  1.0
  Zn  Zn79  1  0.77891127  0.54020259  0.50843019  1.0
  Zn  Zn80  1  0.83857736  0.93449617  0.83633140  1.0
  Zn  Zn81  1  0.84229965  0.30468856  0.53723510  1.0
  Zn  Zn82  1  0.85583046  0.00837540  0.41798757  1.0
  Zn  Zn83  1  0.85939513  0.76712839  0.69074868  1.0
  Zn  Zn84  1  0.86289867  0.43663896  0.15930357  1.0
  Zn  Zn85  1  0.86612679  0.75488014  0.45948955  1.0
  Zn  Zn86  1  0.87476675  0.05317257  0.20062144  1.0
  Zn  Zn87  1  0.87899837  0.87463721  0.06382401  1.0
  Zn  Zn88  1  0.88809853  0.54137080  0.93999979  1.0
  Zn  Zn89  1  0.88866112  0.14513440  0.73793855  1.0
  Zn  Zn90  1  0.89216804  0.09580779  0.97733143  1.0
  Zn  Zn91  1  0.89891182  0.32008910  0.92172886  1.0
  Zn  Zn92  1  0.91297883  0.57163803  0.32119183  1.0
  Zn  Zn93  1  0.91769572  0.65613052  0.11062541  1.0
  Zn  Zn94  1  0.94162816  0.22843985  0.34064476  1.0
  Zn  Zn95  1  0.94436087  0.95967268  0.62175253  1.0
  Zn  Zn96  1  0.94533246  0.56208143  0.72230716  1.0
  Zn  Zn97  1  0.97021300  0.80626147  0.25063764  1.0
  Zn  Zn98  1  0.98340332  0.33855445  0.69814526  1.0
  Zn  Zn99  1  0.98358782  0.76450469  0.86903610  1.0
