# generated using pymatgen
data_Zn
_symmetry_space_group_name_H-M   P1
_cell_length_a   11.57929769
_cell_length_b   11.79186885
_cell_length_c   11.81147420
_cell_angle_alpha   95.67508127
_cell_angle_beta   93.21824293
_cell_angle_gamma   88.84602599
_symmetry_Int_Tables_number   1
_chemical_formula_structural   Zn
_chemical_formula_sum   Zn100
_cell_volume   1602.14878086
_cell_formula_units_Z   100
loop_
 _symmetry_equiv_pos_site_id
 _symmetry_equiv_pos_as_xyz
  1  'x, y, z'
loop_
 _atom_site_type_symbol
 _atom_site_label
 _atom_site_symmetry_multiplicity
 _atom_site_fract_x
 _atom_site_fract_y
 _atom_site_fract_z
 _atom_site_occupancy
  Zn  Zn0  1  0.00552713  0.28184821  0.27972026  1.0
  Zn  Zn1  1  0.01420258  0.46606201  0.41347921  1.0
  Zn  Zn2  1  0.03679500  0.06257611  0.78688435  1.0
  Zn  Zn3  1  0.03847348  0.63463823  0.56909902  1.0
  Zn  Zn4  1  0.03985540  0.28938007  0.05203335  1.0
  Zn  Zn5  1  0.04190539  0.83518407  0.69868656  1.0
  Zn  Zn6  1  0.05231771  0.10972601  0.38922569  1.0
  Zn  Zn7  1  0.06649639  0.21403697  0.60949016  1.0
  Zn  Zn8  1  0.06675378  0.29387432  0.83236641  1.0
  Zn  Zn9  1  0.07305539  0.50185698  0.95848548  1.0
  Zn  Zn10  1  0.07595109  0.83032688  0.47859901  1.0
  Zn  Zn11  1  0.10713749  0.75752184  0.90777185  1.0
  Zn  Zn12  1  0.11281211  0.42383971  0.64668602  1.0
  Zn  Zn13  1  0.11822096  0.65368467  0.14125128  1.0
  Zn  Zn14  1  0.14589271  0.91793646  0.08424068  1.0
  Zn  Zn15  1  0.15133750  0.92592626  0.30323950  1.0
  Zn  Zn16  1  0.16361641  0.10735515  0.97885149  1.0
  Zn  Zn17  1  0.18046043  0.30211635  0.43118802  1.0
  Zn  Zn18  1  0.18588629  0.60986815  0.75452897  1.0
  Zn  Zn19  1  0.19337447  0.02049613  0.57037813  1.0
  Zn  Zn20  1  0.19547746  0.43506588  0.13195837  1.0
  Zn  Zn21  1  0.19643512  0.19938951  0.19824124  1.0
  Zn  Zn22  1  0.20130864  0.69305477  0.35035655  1.0
  Zn  Zn23  1  0.23054423  0.52446718  0.49537075  1.0
  Zn  Zn24  1  0.23395868  0.93173935  0.79084222  1.0
  Zn  Zn25  1  0.25637030  0.16469330  0.79743777  1.0
  Zn  Zn26  1  0.25684058  0.74708896  0.59373704  1.0
  Zn  Zn27  1  0.27823218  0.37998635  0.91032316  1.0
  Zn  Zn28  1  0.28718161  0.61239652  0.97538949  1.0
  Zn  Zn29  1  0.30606394  0.23558517  0.60645229  1.0
  Zn  Zn30  1  0.31872917  0.11408746  0.40361780  1.0
  Zn  Zn31  1  0.32023762  0.81598847  0.19987159  1.0
  Zn  Zn32  1  0.32255365  0.84130586  0.97550569  1.0
  Zn  Zn33  1  0.32804981  0.41228870  0.31111881  1.0
  Zn  Zn34  1  0.33161831  0.88767142  0.43937297  1.0
  Zn  Zn35  1  0.33515604  0.03811162  0.10528926  1.0
  Zn  Zn36  1  0.33735867  0.44699953  0.70933819  1.0
  Zn  Zn37  1  0.34645878  0.59769929  0.19988751  1.0
  Zn  Zn38  1  0.37652862  0.72396076  0.78614354  1.0
  Zn  Zn39  1  0.40103869  0.03590483  0.66417316  1.0
  Zn  Zn40  1  0.41158770  0.18908586  0.97925640  1.0
  Zn  Zn41  1  0.41172047  0.61560780  0.42334533  1.0
  Zn  Zn42  1  0.41260380  0.38563446  0.10940427  1.0
  Zn  Zn43  1  0.42015296  0.38072627  0.50426854  1.0
  Zn  Zn44  1  0.42184374  0.21208898  0.23981036  1.0
  Zn  Zn45  1  0.46504623  0.98427623  0.27806423  1.0
  Zn  Zn46  1  0.46567188  0.95456881  0.84945640  1.0
  Zn  Zn47  1  0.46919256  0.26386100  0.77734440  1.0
  Zn  Zn48  1  0.47582304  0.81510810  0.60266726  1.0
  Zn  Zn49  1  0.48578103  0.58686599  0.62954170  1.0
  Zn  Zn50  1  0.50555543  0.54315592  0.83653701  1.0
  Zn  Zn51  1  0.50777316  0.58129561  0.05188577  1.0
  Zn  Zn52  1  0.53326085  0.79382080  0.37967839  1.0
  Zn  Zn53  1  0.54116516  0.77582381  0.94651782  1.0
  Zn  Zn54  1  0.54220613  0.00084348  0.49089962  1.0
  Zn  Zn55  1  0.54844378  0.78846420  0.16302234  1.0
  Zn  Zn56  1  0.55066706  0.21009158  0.57626465  1.0
  Zn  Zn57  1  0.55670364  0.00722299  0.07158073  1.0
  Zn  Zn58  1  0.56985651  0.58864693  0.27058920  1.0
  Zn  Zn59  1  0.57054921  0.37485910  0.95369339  1.0
  Zn  Zn60  1  0.58202264  0.38399625  0.34256945  1.0
  Zn  Zn61  1  0.61073047  0.16245269  0.35529624  1.0
  Zn  Zn62  1  0.61226390  0.24468110  0.13838753  1.0
  Zn  Zn63  1  0.63244205  0.04653651  0.70760072  1.0
  Zn  Zn64  1  0.63262203  0.41218976  0.58416173  1.0
  Zn  Zn65  1  0.63743136  0.15824699  0.91846287  1.0
  Zn  Zn66  1  0.64165060  0.76047464  0.74423618  1.0
  Zn  Zn67  1  0.65546387  0.63389115  0.49654231  1.0
  Zn  Zn68  1  0.69066754  0.46308879  0.12812145  1.0
  Zn  Zn69  1  0.69718180  0.96127511  0.26611756  1.0
  Zn  Zn70  1  0.70108695  0.31596490  0.77917907  1.0
  Zn  Zn71  1  0.70136377  0.94126649  0.89332696  1.0
  Zn  Zn72  1  0.70892947  0.62906919  0.94388160  1.0
  Zn  Zn73  1  0.71043251  0.85552705  0.52703269  1.0
  Zn  Zn74  1  0.73470595  0.54624495  0.74100495  1.0
  Zn  Zn75  1  0.74486939  0.74417022  0.29995586  1.0
  Zn  Zn76  1  0.74868327  0.82538815  0.07573338  1.0
  Zn  Zn77  1  0.76255055  0.07360159  0.49731519  1.0
  Zn  Zn78  1  0.77448852  0.07706560  0.08228451  1.0
  Zn  Zn79  1  0.79030030  0.52179772  0.32680863  1.0
  Zn  Zn80  1  0.79218890  0.29963358  0.46748445  1.0
  Zn  Zn81  1  0.82976583  0.29496033  0.13540358  1.0
  Zn  Zn82  1  0.83232017  0.15034624  0.30036210  1.0
  Zn  Zn83  1  0.83570261  0.94214023  0.71948910  1.0
  Zn  Zn84  1  0.83991678  0.51227456  0.54101919  1.0
  Zn  Zn85  1  0.84230295  0.72116206  0.63842081  1.0
  Zn  Zn86  1  0.84297624  0.44482577  0.94234241  1.0
  Zn  Zn87  1  0.84633139  0.62780704  0.12327976  1.0
  Zn  Zn88  1  0.84941728  0.16507072  0.69351410  1.0
  Zn  Zn89  1  0.86525831  0.20837852  0.91795599  1.0
  Zn  Zn90  1  0.87013068  0.78850487  0.86517427  1.0
  Zn  Zn91  1  0.88744690  0.89937206  0.37990255  1.0
  Zn  Zn92  1  0.89837891  0.37362219  0.68665694  1.0
  Zn  Zn93  1  0.95260720  0.00183564  0.97022309  1.0
  Zn  Zn94  1  0.95544931  0.99011550  0.19588343  1.0
  Zn  Zn95  1  0.96098220  0.58818774  0.79453202  1.0
  Zn  Zn96  1  0.96790704  0.79251449  0.07125810  1.0
  Zn  Zn97  1  0.96919969  0.01574860  0.56413452  1.0
  Zn  Zn98  1  0.96971626  0.68268670  0.32093263  1.0
  Zn  Zn99  1  0.97897625  0.47218888  0.18929839  1.0
