# generated using pymatgen
data_Zn
_symmetry_space_group_name_H-M   P1
_cell_length_a   11.71559576
_cell_length_b   11.74738353
_cell_length_c   11.86516223
_cell_angle_alpha   84.60252874
_cell_angle_beta   89.97552762
_cell_angle_gamma   93.08373163
_symmetry_Int_Tables_number   1
_chemical_formula_structural   Zn
_chemical_formula_sum   Zn100
_cell_volume   1623.35453051
_cell_formula_units_Z   100
loop_
 _symmetry_equiv_pos_site_id
 _symmetry_equiv_pos_as_xyz
  1  'x, y, z'
loop_
 _atom_site_type_symbol
 _atom_site_label
 _atom_site_symmetry_multiplicity
 _atom_site_fract_x
 _atom_site_fract_y
 _atom_site_fract_z
 _atom_site_occupancy
  Zn  Zn0  1  0.00932092  0.63926425  0.35649574  1.0
  Zn  Zn1  1  0.01245656  0.33277415  0.92217053  1.0
  Zn  Zn2  1  0.03366067  0.70486097  0.73845107  1.0
  Zn  Zn3  1  0.03709565  0.05927301  0.08771684  1.0
  Zn  Zn4  1  0.04240909  0.05856634  0.86453780  1.0
  Zn  Zn5  1  0.05893092  0.92935658  0.67988247  1.0
  Zn  Zn6  1  0.11830233  0.84682757  0.88876308  1.0
  Zn  Zn7  1  0.12831543  0.25128998  0.43045060  1.0
  Zn  Zn8  1  0.13784173  0.14399897  0.63114596  1.0
  Zn  Zn9  1  0.14175474  0.85316883  0.10315593  1.0
  Zn  Zn10  1  0.14283327  0.15552652  0.24111963  1.0
  Zn  Zn11  1  0.14518274  0.48670716  0.45098794  1.0
  Zn  Zn12  1  0.16594495  0.50255826  0.04754713  1.0
  Zn  Zn13  1  0.16885603  0.93583003  0.29497070  1.0
  Zn  Zn14  1  0.17873880  0.38496076  0.24293584  1.0
  Zn  Zn15  1  0.18155682  0.22870949  0.82123773  1.0
  Zn  Zn16  1  0.19219609  0.94920957  0.51039649  1.0
  Zn  Zn17  1  0.19263817  0.27849932  0.03875286  1.0
  Zn  Zn18  1  0.19757092  0.57686773  0.66453696  1.0
  Zn  Zn19  1  0.20126080  0.61614165  0.25042447  1.0
  Zn  Zn20  1  0.20614170  0.72286746  0.46133740  1.0
  Zn  Zn21  1  0.21174515  0.64835868  0.87723210  1.0
  Zn  Zn22  1  0.21380688  0.36005761  0.63369763  1.0
  Zn  Zn23  1  0.23722288  0.05162760  0.97913976  1.0
  Zn  Zn24  1  0.24220697  0.43954430  0.84806014  1.0
  Zn  Zn25  1  0.25216709  0.80017839  0.68497722  1.0
  Zn  Zn26  1  0.30219689  0.99189787  0.78178470  1.0
  Zn  Zn27  1  0.30864955  0.10480712  0.36579674  1.0
  Zn  Zn28  1  0.32410993  0.80954114  0.97094473  1.0
  Zn  Zn29  1  0.32831283  0.80720663  0.20870019  1.0
  Zn  Zn30  1  0.36107825  0.50879446  0.52671284  1.0
  Zn  Zn31  1  0.36317622  0.28480157  0.48421751  1.0
  Zn  Zn32  1  0.36482354  0.16641677  0.11803436  1.0
  Zn  Zn33  1  0.36510589  0.61243758  0.09587782  1.0
  Zn  Zn34  1  0.37561962  0.47070519  0.30207349  1.0
  Zn  Zn35  1  0.37633018  0.20759637  0.70147656  1.0
  Zn  Zn36  1  0.38497286  0.03978518  0.56545813  1.0
  Zn  Zn37  1  0.38662569  0.89118697  0.40735032  1.0
  Zn  Zn38  1  0.38910969  0.27633825  0.90476174  1.0
  Zn  Zn39  1  0.39782701  0.39708002  0.08824167  1.0
  Zn  Zn40  1  0.41182643  0.67509886  0.36521575  1.0
  Zn  Zn41  1  0.42230338  0.96949246  0.07637531  1.0
  Zn  Zn42  1  0.42244333  0.72022245  0.58485734  1.0
  Zn  Zn43  1  0.43049645  0.71013313  0.81284892  1.0
  Zn  Zn44  1  0.44924532  0.26760401  0.28045255  1.0
  Zn  Zn45  1  0.46838627  0.48349538  0.82741844  1.0
  Zn  Zn46  1  0.51588857  0.05635736  0.25121032  1.0
  Zn  Zn47  1  0.52989624  0.02063835  0.71579937  1.0
  Zn  Zn48  1  0.52996839  0.89085922  0.90243528  1.0
  Zn  Zn49  1  0.53832910  0.11363009  0.94059838  1.0
  Zn  Zn50  1  0.54068278  0.76238453  0.10024155  1.0
  Zn  Zn51  1  0.54263807  0.41800475  0.62514640  1.0
  Zn  Zn52  1  0.56359544  0.56232931  0.01499662  1.0
  Zn  Zn53  1  0.56948790  0.39988137  0.40546479  1.0
  Zn  Zn54  1  0.57571564  0.20380665  0.56110563  1.0
  Zn  Zn55  1  0.58457223  0.84362244  0.30610162  1.0
  Zn  Zn56  1  0.58682986  0.00197067  0.46603928  1.0
  Zn  Zn57  1  0.58737622  0.26720326  0.78168384  1.0
  Zn  Zn58  1  0.58873599  0.59968689  0.48614410  1.0
  Zn  Zn59  1  0.59427847  0.60263084  0.26147194  1.0
  Zn  Zn60  1  0.59673021  0.32619389  0.99582068  1.0
  Zn  Zn61  1  0.60369910  0.63243266  0.71253466  1.0
  Zn  Zn62  1  0.64356187  0.39514155  0.19359569  1.0
  Zn  Zn63  1  0.64809844  0.97440028  0.08555413  1.0
  Zn  Zn64  1  0.65073471  0.80002167  0.54131400  1.0
  Zn  Zn65  1  0.65658180  0.19951899  0.34174234  1.0
  Zn  Zn66  1  0.67162929  0.84198606  0.75045914  1.0
  Zn  Zn67  1  0.71141163  0.47695945  0.85736154  1.0
  Zn  Zn68  1  0.72178050  0.06996686  0.79786615  1.0
  Zn  Zn69  1  0.72497366  0.18879654  0.12703979  1.0
  Zn  Zn70  1  0.72697470  0.80754460  0.96843285  1.0
  Zn  Zn71  1  0.76268397  0.76693003  0.20231991  1.0
  Zn  Zn72  1  0.76464499  0.52240218  0.61182051  1.0
  Zn  Zn73  1  0.77266685  0.29747044  0.65975153  1.0
  Zn  Zn74  1  0.78257418  0.60391080  0.04835058  1.0
  Zn  Zn75  1  0.78368902  0.12826370  0.51530002  1.0
  Zn  Zn76  1  0.78497259  0.35829558  0.43961673  1.0
  Zn  Zn77  1  0.79812789  0.91840113  0.39566155  1.0
  Zn  Zn78  1  0.79925979  0.25835669  0.88632460  1.0
  Zn  Zn79  1  0.80718727  0.53823471  0.27971561  1.0
  Zn  Zn80  1  0.80836790  0.68419974  0.44030151  1.0
  Zn  Zn81  1  0.81932512  0.66728927  0.78826270  1.0
  Zn  Zn82  1  0.83324784  0.39441792  0.05606323  1.0
  Zn  Zn83  1  0.83591290  0.92513017  0.61221355  1.0
  Zn  Zn84  1  0.83803647  0.00464106  0.19360738  1.0
  Zn  Zn85  1  0.84651810  0.04116439  0.97610469  1.0
  Zn  Zn86  1  0.88175688  0.18089293  0.31344562  1.0
  Zn  Zn87  1  0.89170740  0.88331061  0.82529616  1.0
  Zn  Zn88  1  0.91940543  0.13800363  0.69546563  1.0
  Zn  Zn89  1  0.92910096  0.45046316  0.75560530  1.0
  Zn  Zn90  1  0.93825761  0.78727471  0.03559595  1.0
  Zn  Zn91  1  0.97041342  0.39965431  0.32711979  1.0
  Zn  Zn92  1  0.97127442  0.83907838  0.25043458  1.0
  Zn  Zn93  1  0.98023622  0.59139876  0.57109641  1.0
  Zn  Zn94  1  0.98181982  0.34849660  0.56730365  1.0
  Zn  Zn95  1  0.98187207  0.57235305  0.93159446  1.0
  Zn  Zn96  1  0.99337538  0.28331949  0.14199515  1.0
  Zn  Zn97  1  0.99487297  0.05700863  0.47035921  1.0
  Zn  Zn98  1  0.99540222  0.58242194  0.15013052  1.0
  Zn  Zn99  1  0.99949484  0.82431908  0.48086629  1.0
