# generated using pymatgen
data_Zn
_symmetry_space_group_name_H-M   R-3m
_cell_length_a   2.65404401
_cell_length_b   2.65404401
_cell_length_c   7.57269600
_cell_angle_alpha   79.90750231
_cell_angle_beta   79.90750231
_cell_angle_gamma   59.99999963
_symmetry_Int_Tables_number   166
_chemical_formula_structural   Zn
_chemical_formula_sum   Zn3
_cell_volume   45.23965545
_cell_formula_units_Z   3
loop_
 _symmetry_equiv_pos_site_id
 _symmetry_equiv_pos_as_xyz
  1  'x, y, z'
  2  '-x, -y, -z'
  3  '-x-y-z, x, z'
  4  'x+y+z, -x, -z'
  5  'y, -x-y-z, z'
  6  '-y, x+y+z, -z'
  7  '-x, x+y+z, -z'
  8  'x, -x-y-z, z'
  9  'x+y+z, -y, -z'
  10  '-x-y-z, y, z'
  11  '-y, -x, -z'
  12  'y, x, z'
loop_
 _atom_site_type_symbol
 _atom_site_label
 _atom_site_symmetry_multiplicity
 _atom_site_fract_x
 _atom_site_fract_y
 _atom_site_fract_z
 _atom_site_occupancy
  Zn  Zn0  2  0.22199600  0.22199600  0.33401200  1.0
  Zn  Zn1  1  0.00000000  0.00000000  0.00000000  1.0
