# generated using pymatgen
data_Zn
_symmetry_space_group_name_H-M   P1
_cell_length_a   11.71499034
_cell_length_b   11.71820401
_cell_length_c   11.82686821
_cell_angle_alpha   85.16295392
_cell_angle_beta   86.61702080
_cell_angle_gamma   86.92695662
_symmetry_Int_Tables_number   1
_chemical_formula_structural   Zn
_chemical_formula_sum   Zn100
_cell_volume   1613.04359568
_cell_formula_units_Z   100
loop_
 _symmetry_equiv_pos_site_id
 _symmetry_equiv_pos_as_xyz
  1  'x, y, z'
loop_
 _atom_site_type_symbol
 _atom_site_label
 _atom_site_symmetry_multiplicity
 _atom_site_fract_x
 _atom_site_fract_y
 _atom_site_fract_z
 _atom_site_occupancy
  Zn  Zn0  1  0.03411737  0.48069123  0.44392887  1.0
  Zn  Zn1  1  0.04673688  0.07973530  0.34678675  1.0
  Zn  Zn2  1  0.04897480  0.03393767  0.89093097  1.0
  Zn  Zn3  1  0.05541124  0.58833118  0.98960153  1.0
  Zn  Zn4  1  0.07537014  0.71102727  0.53662968  1.0
  Zn  Zn5  1  0.08002115  0.09981819  0.56202523  1.0
  Zn  Zn6  1  0.08074918  0.47796923  0.79499931  1.0
  Zn  Zn7  1  0.08090335  0.99972593  0.10990291  1.0
  Zn  Zn8  1  0.08639742  0.89420921  0.69443896  1.0
  Zn  Zn9  1  0.08947688  0.39627303  0.23015931  1.0
  Zn  Zn10  1  0.10179734  0.85686025  0.29639034  1.0
  Zn  Zn11  1  0.10538581  0.76369128  0.10077827  1.0
  Zn  Zn12  1  0.11213416  0.32339207  0.01859799  1.0
  Zn  Zn13  1  0.14264134  0.26929183  0.41215110  1.0
  Zn  Zn14  1  0.15096367  0.69014705  0.80423583  1.0
  Zn  Zn15  1  0.15315973  0.64048197  0.32150594  1.0
  Zn  Zn16  1  0.15673558  0.91736725  0.48599443  1.0
  Zn  Zn17  1  0.16733915  0.36424992  0.61037630  1.0
  Zn  Zn18  1  0.17105049  0.18725560  0.19099301  1.0
  Zn  Zn19  1  0.19146599  0.27262407  0.82028290  1.0
  Zn  Zn20  1  0.21298177  0.06918776  0.73014148  1.0
  Zn  Zn21  1  0.22515427  0.54677639  0.12973642  1.0
  Zn  Zn22  1  0.23335913  0.89160455  0.87477861  1.0
  Zn  Zn23  1  0.24528662  0.56813684  0.50890134  1.0
  Zn  Zn24  1  0.25332075  0.48145754  0.92892998  1.0
  Zn  Zn25  1  0.25424581  0.12773406  0.99118463  1.0
  Zn  Zn26  1  0.26946624  0.75926626  0.62516613  1.0
  Zn  Zn27  1  0.27093690  0.00149160  0.30537844  1.0
  Zn  Zn28  1  0.29127390  0.89973575  0.10875728  1.0
  Zn  Zn29  1  0.29546824  0.43916316  0.31447917  1.0
  Zn  Zn30  1  0.29916135  0.71418418  0.99384385  1.0
  Zn  Zn31  1  0.30766535  0.18848618  0.56057047  1.0
  Zn  Zn32  1  0.30914411  0.51082321  0.71832271  1.0
  Zn  Zn33  1  0.32764550  0.78235551  0.40573296  1.0
  Zn  Zn34  1  0.33824119  0.33770957  0.10416999  1.0
  Zn  Zn35  1  0.34749105  0.20898103  0.32165793  1.0
  Zn  Zn36  1  0.35683647  0.96414423  0.55307600  1.0
  Zn  Zn37  1  0.36304780  0.69066504  0.20814523  1.0
  Zn  Zn38  1  0.38372837  0.40053636  0.53356310  1.0
  Zn  Zn39  1  0.39372552  0.15588059  0.80099703  1.0
  Zn  Zn40  1  0.40884105  0.72424539  0.79596332  1.0
  Zn  Zn41  1  0.42861382  0.08067279  0.14669333  1.0
  Zn  Zn42  1  0.43361617  0.35419589  0.87898816  1.0
  Zn  Zn43  1  0.44173794  0.99208496  0.95300875  1.0
  Zn  Zn44  1  0.44877519  0.93417705  0.74783445  1.0
  Zn  Zn45  1  0.45880725  0.56694414  0.37728263  1.0
  Zn  Zn46  1  0.45929219  0.56597674  0.96009519  1.0
  Zn  Zn47  1  0.46303736  0.65656849  0.57759207  1.0
  Zn  Zn48  1  0.48294389  0.01262185  0.36349691  1.0
  Zn  Zn49  1  0.50933907  0.22916312  0.46207422  1.0
  Zn  Zn50  1  0.51430791  0.34162134  0.26580642  1.0
  Zn  Zn51  1  0.51706594  0.82243102  0.09304788  1.0
  Zn  Zn52  1  0.52283695  0.29042599  0.68175450  1.0
  Zn  Zn53  1  0.53290318  0.79850230  0.30486669  1.0
  Zn  Zn54  1  0.53832038  0.54012204  0.16079930  1.0
  Zn  Zn55  1  0.54120520  0.53307070  0.75588208  1.0
  Zn  Zn56  1  0.54433883  0.26412187  0.05508602  1.0
  Zn  Zn57  1  0.56300427  0.05717892  0.59059496  1.0
  Zn  Zn58  1  0.57652188  0.85051756  0.51139567  1.0
  Zn  Zn59  1  0.59785238  0.45352878  0.54073339  1.0
  Zn  Zn60  1  0.62423240  0.86262075  0.90121675  1.0
  Zn  Zn61  1  0.62998740  0.13295718  0.22264384  1.0
  Zn  Zn62  1  0.63335801  0.07104717  0.79110547  1.0
  Zn  Zn63  1  0.65215377  0.66052471  0.00798572  1.0
  Zn  Zn64  1  0.65617240  0.05671292  0.01591528  1.0
  Zn  Zn65  1  0.66074214  0.45138031  0.95596889  1.0
  Zn  Zn66  1  0.66290133  0.26612915  0.86314884  1.0
  Zn  Zn67  1  0.67118534  0.66817506  0.42033348  1.0
  Zn  Zn68  1  0.67231985  0.47880919  0.32108430  1.0
  Zn  Zn69  1  0.68870326  0.67097858  0.62986399  1.0
  Zn  Zn70  1  0.69121324  0.88722631  0.68612123  1.0
  Zn  Zn71  1  0.69679103  0.02950266  0.41287823  1.0
  Zn  Zn72  1  0.70141439  0.91750350  0.20054932  1.0
  Zn  Zn73  1  0.71529290  0.27030561  0.41448196  1.0
  Zn  Zn74  1  0.72720070  0.67607728  0.20646461  1.0
  Zn  Zn75  1  0.72943162  0.32339232  0.15253855  1.0
  Zn  Zn76  1  0.74499682  0.23093662  0.63925174  1.0
  Zn  Zn77  1  0.74551975  0.44498612  0.72905158  1.0
  Zn  Zn78  1  0.76057680  0.71321291  0.81785635  1.0
  Zn  Zn79  1  0.81289046  0.50633943  0.50041426  1.0
  Zn  Zn80  1  0.83489359  0.11684031  0.87867501  1.0
  Zn  Zn81  1  0.84728947  0.14616297  0.27964266  1.0
  Zn  Zn82  1  0.86579081  0.53551133  0.89718735  1.0
  Zn  Zn83  1  0.86632127  0.71358152  0.02586863  1.0
  Zn  Zn84  1  0.86801508  0.02709247  0.67795227  1.0
  Zn  Zn85  1  0.86891273  0.95128689  0.02958047  1.0
  Zn  Zn86  1  0.87724519  0.39128448  0.30949368  1.0
  Zn  Zn87  1  0.89031363  0.93122571  0.38085993  1.0
  Zn  Zn88  1  0.89055107  0.83540645  0.58925266  1.0
  Zn  Zn89  1  0.89594925  0.70164770  0.40980431  1.0
  Zn  Zn90  1  0.90385811  0.32014537  0.89134441  1.0
  Zn  Zn91  1  0.90613127  0.81575105  0.20689405  1.0
  Zn  Zn92  1  0.91359842  0.42107107  0.08660290  1.0
  Zn  Zn93  1  0.91802340  0.23483221  0.48849143  1.0
  Zn  Zn94  1  0.93020722  0.62738630  0.69101008  1.0
  Zn  Zn95  1  0.93666942  0.17923784  0.07821645  1.0
  Zn  Zn96  1  0.94200580  0.83458848  0.85006854  1.0
  Zn  Zn97  1  0.94828505  0.40569688  0.64691382  1.0
  Zn  Zn98  1  0.96441145  0.59206486  0.21773521  1.0
  Zn  Zn99  1  0.99224732  0.19972902  0.72970745  1.0
